* NGSPICE file created from tt_um_oscillating_bones.ext - technology: sky130A

.subckt tt_um_oscillating_bones clk ena rst_n ui_in[0] ui_in[1] ui_in[2] ui_in[3]
+ ui_in[4] ui_in[5] ui_in[6] ui_in[7] uio_in[0] uio_in[1] uio_in[2] uio_in[3] uio_in[4]
+ uio_in[5] uio_in[6] uio_in[7] uio_oe[0] uio_oe[1] uio_oe[2] uio_oe[3] uio_oe[4]
+ uio_oe[5] uio_oe[6] uio_oe[7] uio_out[0] uio_out[1] uio_out[2] uio_out[3] uio_out[4]
+ uio_out[5] uio_out[6] uio_out[7] uo_out[2] uo_out[4] uo_out[5] uo_out[6] uo_out[7]
+ VGND uo_out[0] uo_out[1] uo_out[3] VPWR
X0 a_13289_43697# uo_out[2].t2 VPWR.t15 VPWR.t14 sky130_fd_pr__pfet_01v8_hvt ad=0.1664 pd=1.8 as=0.0864 ps=0.91 w=0.64 l=0.15
X1 a_16868_43697# a_17160_43997# a_17111_44089# VPWR.t69 sky130_fd_pr__pfet_01v8_hvt ad=0.0567 pd=0.69 as=0.0882 ps=0.84 w=0.42 l=0.15
X2 a_16596_43697# a_16868_43697# VGND.t16 VGND.t15 sky130_fd_pr__nfet_01v8 ad=0.169 pd=1.82 as=0.08775 ps=0.92 w=0.65 l=0.15
X3 VPWR.t23 a_12637_43697# freq_divider_0.sky130_fd_sc_hd__dfxbp_1_3.Q_N VPWR.t22 sky130_fd_pr__pfet_01v8_hvt ad=0.154 pd=1.335 as=0.26 ps=2.52 w=1 l=0.15
X4 VGND.t68 uo_out[0].t2 ring_0/skullfet_inverter_6.A VGND.t67 sky130_fd_pr__nfet_01v8 ad=4.2687 pd=10.82 as=6.4314 ps=26.72 w=4.05 l=0.4
X5 a_17360_43697# a_17160_43997# a_17509_43723# VGND.t53 sky130_fd_pr__nfet_01v8 ad=0.0621 pd=0.705 as=0.0696 ps=0.765 w=0.36 l=0.15
X6 VGND.t49 a_14569_43697# freq_divider_0.sky130_fd_sc_hd__dfxbp_1_2.Q_N VGND.t2 sky130_fd_pr__nfet_01v8 ad=0.097 pd=0.975 as=0.169 ps=1.82 w=0.65 l=0.15
X7 VGND.t39 ring_0/skullfet_inverter_12.A ring_0/skullfet_inverter_13.A VGND.t38 sky130_fd_pr__nfet_01v8 ad=4.2687 pd=10.82 as=6.4314 ps=26.72 w=4.05 l=0.4
X8 a_15221_43697# uo_out[1].t2 VPWR.t9 VPWR.t8 sky130_fd_pr__pfet_01v8_hvt ad=0.1664 pd=1.8 as=0.0864 ps=0.91 w=0.64 l=0.15
X9 VPWR.t73 freq_divider_0.sky130_fd_sc_hd__dfxbp_1_3.Q_N a_13843_43723# VPWR.t72 sky130_fd_pr__pfet_01v8_hvt ad=0.1092 pd=1.36 as=0.05775 ps=0.695 w=0.42 l=0.15
X10 a_15179_44089# a_14664_43697# VPWR.t67 VPWR.t66 sky130_fd_pr__pfet_01v8_hvt ad=0.0882 pd=0.84 as=0.1113 ps=1.37 w=0.42 l=0.15
X11 VGND.t80 ring_0/skullfet_inverter_19.A ring_0/skullfet_inverter_20.A VGND.t79 sky130_fd_pr__nfet_01v8 ad=4.2687 pd=10.82 as=6.4314 ps=26.72 w=4.05 l=0.4
X12 ring_0/skullfet_inverter_6.A uo_out[0].t3 VPWR.t103 VPWR.t102 sky130_fd_pr__pfet_01v8 ad=6.2694 pd=26.64 as=4.4307 ps=10.9 w=4.05 l=0.4
X13 a_15577_43723# a_15357_43723# VGND.t78 VGND.t8 sky130_fd_pr__nfet_01v8 ad=0.0696 pd=0.765 as=0.12095 ps=1.085 w=0.42 l=0.15
X14 VGND.t52 a_14664_43697# uo_out[2].t0 VGND.t2 sky130_fd_pr__nfet_01v8 ad=0.08775 pd=0.92 as=0.169 ps=1.82 w=0.65 l=0.15
X15 VPWR.t87 a_13289_43697# a_13296_43997# VPWR.t86 sky130_fd_pr__pfet_01v8_hvt ad=0.0864 pd=0.91 as=0.1664 ps=1.8 w=0.64 l=0.15
X16 VGND.t22 a_15221_43697# a_15228_43997# VGND.t8 sky130_fd_pr__nfet_01v8 ad=0.0567 pd=0.69 as=0.1092 ps=1.36 w=0.42 l=0.15
X17 VGND.t36 ring_0/skullfet_inverter_2.A ring_0/skullfet_inverter_3.A VGND.t35 sky130_fd_pr__nfet_01v8 ad=4.2687 pd=10.82 as=6.4314 ps=26.72 w=4.05 l=0.4
X18 a_13843_43723# a_13296_43997# a_13496_43697# VPWR.t113 sky130_fd_pr__pfet_01v8_hvt ad=0.05775 pd=0.695 as=0.06825 ps=0.745 w=0.42 l=0.15
X19 ring_0/skullfet_inverter_13.A ring_0/skullfet_inverter_12.A VPWR.t47 VPWR.t46 sky130_fd_pr__pfet_01v8 ad=6.2694 pd=26.64 as=4.4307 ps=10.9 w=4.05 l=0.4
X20 VGND.t41 ring_0/skullfet_inverter_7.A ring_0/skullfet_inverter_8.A VGND.t40 sky130_fd_pr__nfet_01v8 ad=4.2687 pd=10.82 as=6.4314 ps=26.72 w=4.05 l=0.4
X21 a_16501_43697# a_16596_43697# VGND.t60 VGND.t57 sky130_fd_pr__nfet_01v8 ad=0.1092 pd=1.36 as=0.097 ps=0.975 w=0.42 l=0.15
X22 a_12637_43697# a_12732_43697# VPWR.t57 VPWR.t56 sky130_fd_pr__pfet_01v8_hvt ad=0.1664 pd=1.8 as=0.154 ps=1.335 w=0.64 l=0.15
X23 ring_0/skullfet_inverter_16.A ring_0/skullfet_inverter_15.A VGND.t32 VGND.t31 sky130_fd_pr__nfet_01v8 ad=6.4314 pd=26.72 as=4.2687 ps=10.82 w=4.05 l=0.4
X24 VGND.t1 ring_0/skullfet_inverter_11.A ring_0/skullfet_inverter_12.A VGND.t0 sky130_fd_pr__nfet_01v8 ad=4.2687 pd=10.82 as=6.4314 ps=26.72 w=4.05 l=0.4
X25 a_17289_43723# a_17153_43697# a_16868_43697# VPWR.t95 sky130_fd_pr__pfet_01v8_hvt ad=0.1095 pd=1.075 as=0.0567 ps=0.69 w=0.42 l=0.15
X26 a_13224_43723# a_12732_43697# VGND.t46 VGND.t8 sky130_fd_pr__nfet_01v8 ad=0.066 pd=0.745 as=0.1092 ps=1.36 w=0.42 l=0.15
X27 VPWR.t65 a_14664_43697# uo_out[2].t1 VPWR.t64 sky130_fd_pr__pfet_01v8_hvt ad=0.135 pd=1.27 as=0.26 ps=2.52 w=1 l=0.15
X28 ring_0/skullfet_inverter_15.A ring_0/skullfet_inverter_14.A VGND.t24 VGND.t23 sky130_fd_pr__nfet_01v8 ad=6.4314 pd=26.72 as=4.2687 ps=10.82 w=4.05 l=0.4
X29 VPWR.t99 ring_0/skullfet_inverter_17.A ring_0/skullfet_inverter_18.A VPWR.t98 sky130_fd_pr__pfet_01v8 ad=4.4307 pd=10.9 as=6.2694 ps=26.64 w=4.05 l=0.4
X30 VGND.t73 ring_0/skullfet_inverter_1.A ring_0/skullfet_inverter_2.A VGND.t72 sky130_fd_pr__nfet_01v8 ad=4.2687 pd=10.82 as=6.4314 ps=26.72 w=4.05 l=0.4
X31 a_17707_43723# a_17153_43697# a_17360_43697# VGND.t71 sky130_fd_pr__nfet_01v8 ad=0.0813 pd=0.83 as=0.0621 ps=0.705 w=0.36 l=0.15
X32 VGND.t13 ring_0/skullfet_inverter_20.Y ring_0/skullfet_inverter_1.A VGND.t12 sky130_fd_pr__nfet_01v8 ad=4.2687 pd=10.82 as=6.4314 ps=26.72 w=4.05 l=0.4
X33 a_15156_43723# a_14664_43697# VGND.t51 VGND.t8 sky130_fd_pr__nfet_01v8 ad=0.066 pd=0.745 as=0.1092 ps=1.36 w=0.42 l=0.15
X34 a_14936_43697# a_15228_43997# a_15179_44089# VPWR.t101 sky130_fd_pr__pfet_01v8_hvt ad=0.0567 pd=0.69 as=0.0882 ps=0.84 w=0.42 l=0.15
X35 a_13289_43697# uo_out[2].t3 VGND.t14 VGND.t8 sky130_fd_pr__nfet_01v8 ad=0.1092 pd=1.36 as=0.0567 ps=0.69 w=0.42 l=0.15
X36 ring_0/skullfet_inverter_8.A ring_0/skullfet_inverter_7.A VPWR.t49 VPWR.t48 sky130_fd_pr__pfet_01v8 ad=6.2694 pd=26.64 as=4.4307 ps=10.9 w=4.05 l=0.4
X37 ring_0/skullfet_inverter_12.A ring_0/skullfet_inverter_11.A VPWR.t1 VPWR.t0 sky130_fd_pr__pfet_01v8 ad=6.2694 pd=26.64 as=4.4307 ps=10.9 w=4.05 l=0.4
X38 ring_0/skullfet_inverter_2.A ring_0/skullfet_inverter_1.A VPWR.t97 VPWR.t96 sky130_fd_pr__pfet_01v8 ad=6.2694 pd=26.64 as=4.4307 ps=10.9 w=4.05 l=0.4
X39 ring_0/skullfet_inverter_9.A ring_0/skullfet_inverter_8.A VPWR.t41 VPWR.t40 sky130_fd_pr__pfet_01v8 ad=6.2694 pd=26.64 as=4.4307 ps=10.9 w=4.05 l=0.4
X40 VGND.t11 freq_divider_0.sky130_fd_sc_hd__dfxbp_1_1.Q_N a_17707_43723# VGND.t10 sky130_fd_pr__nfet_01v8 ad=0.1092 pd=1.36 as=0.0813 ps=0.83 w=0.42 l=0.15
X41 a_14664_43697# a_14936_43697# VGND.t3 VGND.t2 sky130_fd_pr__nfet_01v8 ad=0.169 pd=1.82 as=0.08775 ps=0.92 w=0.65 l=0.15
X42 a_15428_43697# a_15228_43997# a_15577_43723# VGND.t21 sky130_fd_pr__nfet_01v8 ad=0.0621 pd=0.705 as=0.0696 ps=0.765 w=0.36 l=0.15
X43 VGND.t20 a_12637_43697# freq_divider_0.sky130_fd_sc_hd__dfxbp_1_3.Q_N VGND.t2 sky130_fd_pr__nfet_01v8 ad=0.097 pd=0.975 as=0.169 ps=1.82 w=0.65 l=0.15
X44 VGND.t42 a_13496_43697# a_13425_43723# VGND.t29 sky130_fd_pr__nfet_01v8 ad=0.12095 pd=1.085 as=0.0989 ps=0.995 w=0.64 l=0.15
X45 a_13247_44089# a_12732_43697# VPWR.t55 VPWR.t54 sky130_fd_pr__pfet_01v8_hvt ad=0.0882 pd=0.84 as=0.1113 ps=1.37 w=0.42 l=0.15
X46 a_15221_43697# uo_out[1].t3 VGND.t9 VGND.t8 sky130_fd_pr__nfet_01v8 ad=0.1092 pd=1.36 as=0.0567 ps=0.69 w=0.42 l=0.15
X47 a_16868_43697# a_17153_43697# a_17088_43723# VGND.t53 sky130_fd_pr__nfet_01v8 ad=0.0684 pd=0.74 as=0.066 ps=0.745 w=0.36 l=0.15
X48 a_13645_43723# a_13425_43723# VGND.t28 VGND.t8 sky130_fd_pr__nfet_01v8 ad=0.0696 pd=0.765 as=0.12095 ps=1.085 w=0.42 l=0.15
X49 VPWR.t71 ring_0/skullfet_inverter_16.A ring_0/skullfet_inverter_17.A VPWR.t70 sky130_fd_pr__pfet_01v8 ad=4.4307 pd=10.9 as=6.2694 ps=26.64 w=4.05 l=0.4
X50 VPWR.t111 ring_0/skullfet_inverter_18.A ring_0/skullfet_inverter_19.A VPWR.t110 sky130_fd_pr__pfet_01v8 ad=4.4307 pd=10.9 as=6.2694 ps=26.64 w=4.05 l=0.4
X51 VGND.t30 a_15428_43697# a_15357_43723# VGND.t29 sky130_fd_pr__nfet_01v8 ad=0.12095 pd=1.085 as=0.0989 ps=0.995 w=0.64 l=0.15
X52 VGND.t45 a_12732_43697# uo_out[3].t0 VGND.t2 sky130_fd_pr__nfet_01v8 ad=0.08775 pd=0.92 as=0.169 ps=1.82 w=0.65 l=0.15
X53 VGND.t19 ring_0/skullfet_inverter_6.A ring_0/skullfet_inverter_7.A VGND.t18 sky130_fd_pr__nfet_01v8 ad=4.2687 pd=10.82 as=6.4314 ps=26.72 w=4.05 l=0.4
X54 VPWR.t81 a_17360_43697# a_17289_43723# VPWR.t80 sky130_fd_pr__pfet_01v8_hvt ad=0.178875 pd=1.26 as=0.1095 ps=1.075 w=0.75 l=0.15
X55 a_14664_43697# a_14936_43697# VPWR.t3 VPWR.t2 sky130_fd_pr__pfet_01v8_hvt ad=0.27 pd=2.54 as=0.135 ps=1.27 w=1 l=0.15
X56 VGND.t65 a_13289_43697# a_13296_43997# VGND.t8 sky130_fd_pr__nfet_01v8 ad=0.0567 pd=0.69 as=0.1092 ps=1.36 w=0.42 l=0.15
X57 ring_0/skullfet_inverter_1.A ring_0/skullfet_inverter_20.Y VPWR.t13 VPWR.t12 sky130_fd_pr__pfet_01v8 ad=6.2694 pd=26.64 as=4.4307 ps=10.9 w=4.05 l=0.4
X58 VPWR.t39 ring_0/skullfet_inverter_15.A ring_0/skullfet_inverter_16.A VPWR.t38 sky130_fd_pr__pfet_01v8 ad=4.4307 pd=10.9 as=6.2694 ps=26.64 w=4.05 l=0.4
X59 ring_0/skullfet_inverter_20.A ring_0/skullfet_inverter_19.A VPWR.t109 VPWR.t108 sky130_fd_pr__pfet_01v8 ad=6.2694 pd=26.64 as=4.4307 ps=10.9 w=4.05 l=0.4
X60 a_14569_43697# a_14664_43697# VGND.t50 VGND.t8 sky130_fd_pr__nfet_01v8 ad=0.1092 pd=1.36 as=0.097 ps=0.975 w=0.42 l=0.15
X61 a_15604_44089# a_15357_43723# VPWR.t107 VPWR.t106 sky130_fd_pr__pfet_01v8_hvt ad=0.07665 pd=0.785 as=0.178875 ps=1.26 w=0.42 l=0.15
X62 a_15357_43723# a_15221_43697# a_14936_43697# VPWR.t27 sky130_fd_pr__pfet_01v8_hvt ad=0.1095 pd=1.075 as=0.0567 ps=0.69 w=0.42 l=0.15
X63 a_15428_43697# a_15221_43697# a_15604_44089# VPWR.t26 sky130_fd_pr__pfet_01v8_hvt ad=0.06825 pd=0.745 as=0.07665 ps=0.785 w=0.42 l=0.15
X64 a_12732_43697# a_13004_43697# VGND.t27 VGND.t2 sky130_fd_pr__nfet_01v8 ad=0.169 pd=1.82 as=0.08775 ps=0.92 w=0.65 l=0.15
X65 VGND.t5 ring_0/skullfet_inverter_4.A uo_out[0].t0 VGND.t4 sky130_fd_pr__nfet_01v8 ad=4.2687 pd=10.82 as=6.4314 ps=26.72 w=4.05 l=0.4
X66 a_17289_43723# a_17160_43997# a_16868_43697# VGND.t53 sky130_fd_pr__nfet_01v8 ad=0.0989 pd=0.995 as=0.0684 ps=0.74 w=0.36 l=0.15
X67 VPWR.t11 freq_divider_0.sky130_fd_sc_hd__dfxbp_1_1.Q_N a_17707_43723# VPWR.t10 sky130_fd_pr__pfet_01v8_hvt ad=0.1092 pd=1.36 as=0.05775 ps=0.695 w=0.42 l=0.15
X68 VPWR.t53 a_12732_43697# uo_out[3].t1 VPWR.t52 sky130_fd_pr__pfet_01v8_hvt ad=0.135 pd=1.27 as=0.26 ps=2.52 w=1 l=0.15
X69 VGND.t26 ring_0/skullfet_inverter_10.A ring_0/skullfet_inverter_11.A VGND.t25 sky130_fd_pr__nfet_01v8 ad=4.2687 pd=10.82 as=6.4314 ps=26.72 w=4.05 l=0.4
X70 ring_0/skullfet_inverter_10.A ring_0/skullfet_inverter_9.A VPWR.t7 VPWR.t6 sky130_fd_pr__pfet_01v8 ad=6.2694 pd=26.64 as=4.4307 ps=10.9 w=4.05 l=0.4
X71 VPWR.t83 ring_0/skullfet_inverter_13.A ring_0/skullfet_inverter_14.A VPWR.t82 sky130_fd_pr__pfet_01v8 ad=4.4307 pd=10.9 as=6.2694 ps=26.64 w=4.05 l=0.4
X72 ring_0/skullfet_inverter_7.A ring_0/skullfet_inverter_6.A VPWR.t21 VPWR.t20 sky130_fd_pr__pfet_01v8 ad=6.2694 pd=26.64 as=4.4307 ps=10.9 w=4.05 l=0.4
X73 a_17153_43697# uo_out[0].t4 VPWR.t89 VPWR.t88 sky130_fd_pr__pfet_01v8_hvt ad=0.1664 pd=1.8 as=0.0864 ps=0.91 w=0.64 l=0.15
X74 a_17536_44089# a_17289_43723# VPWR.t91 VPWR.t90 sky130_fd_pr__pfet_01v8_hvt ad=0.07665 pd=0.785 as=0.178875 ps=1.26 w=0.42 l=0.15
X75 a_15775_43723# a_15221_43697# a_15428_43697# VGND.t21 sky130_fd_pr__nfet_01v8 ad=0.0813 pd=0.83 as=0.0621 ps=0.705 w=0.36 l=0.15
X76 a_17360_43697# a_17153_43697# a_17536_44089# VPWR.t94 sky130_fd_pr__pfet_01v8_hvt ad=0.06825 pd=0.745 as=0.07665 ps=0.785 w=0.42 l=0.15
X77 a_17111_44089# a_16596_43697# VPWR.t79 VPWR.t78 sky130_fd_pr__pfet_01v8_hvt ad=0.0882 pd=0.84 as=0.1113 ps=1.37 w=0.42 l=0.15
X78 a_13004_43697# a_13296_43997# a_13247_44089# VPWR.t112 sky130_fd_pr__pfet_01v8_hvt ad=0.0567 pd=0.69 as=0.0882 ps=0.84 w=0.42 l=0.15
X79 VPWR.t45 a_16501_43697# freq_divider_0.sky130_fd_sc_hd__dfxbp_1_1.Q_N VPWR.t44 sky130_fd_pr__pfet_01v8_hvt ad=0.154 pd=1.335 as=0.26 ps=2.52 w=1 l=0.15
X80 a_12732_43697# a_13004_43697# VPWR.t33 VPWR.t32 sky130_fd_pr__pfet_01v8_hvt ad=0.27 pd=2.54 as=0.135 ps=1.27 w=1 l=0.15
X81 VGND.t48 ring_0/skullfet_inverter_3.A ring_0/skullfet_inverter_4.A VGND.t47 sky130_fd_pr__nfet_01v8 ad=4.2687 pd=10.82 as=6.4314 ps=26.72 w=4.05 l=0.4
X82 VGND.t17 freq_divider_0.sky130_fd_sc_hd__dfxbp_1_2.Q_N a_15775_43723# VGND.t8 sky130_fd_pr__nfet_01v8 ad=0.1092 pd=1.36 as=0.0813 ps=0.83 w=0.42 l=0.15
X83 a_13496_43697# a_13296_43997# a_13645_43723# VGND.t21 sky130_fd_pr__nfet_01v8 ad=0.0621 pd=0.705 as=0.0696 ps=0.765 w=0.36 l=0.15
X84 uo_out[0].t1 ring_0/skullfet_inverter_4.A VPWR.t5 VPWR.t4 sky130_fd_pr__pfet_01v8 ad=6.2694 pd=26.64 as=4.4307 ps=10.9 w=4.05 l=0.4
X85 ring_0/skullfet_inverter_11.A ring_0/skullfet_inverter_10.A VPWR.t31 VPWR.t30 sky130_fd_pr__pfet_01v8 ad=6.2694 pd=26.64 as=4.4307 ps=10.9 w=4.05 l=0.4
X86 a_16501_43697# a_16596_43697# VPWR.t77 VPWR.t76 sky130_fd_pr__pfet_01v8_hvt ad=0.1664 pd=1.8 as=0.154 ps=1.335 w=0.64 l=0.15
X87 a_14936_43697# a_15221_43697# a_15156_43723# VGND.t21 sky130_fd_pr__nfet_01v8 ad=0.0684 pd=0.74 as=0.066 ps=0.745 w=0.36 l=0.15
X88 VPWR.t93 a_17153_43697# a_17160_43997# VPWR.t92 sky130_fd_pr__pfet_01v8_hvt ad=0.0864 pd=0.91 as=0.1664 ps=1.8 w=0.64 l=0.15
X89 VPWR.t37 a_15428_43697# a_15357_43723# VPWR.t36 sky130_fd_pr__pfet_01v8_hvt ad=0.178875 pd=1.26 as=0.1095 ps=1.075 w=0.75 l=0.15
X90 VGND.t7 ring_0/skullfet_inverter_9.A ring_0/skullfet_inverter_10.A VGND.t6 sky130_fd_pr__nfet_01v8 ad=4.2687 pd=10.82 as=6.4314 ps=26.72 w=4.05 l=0.4
X91 ring_0/skullfet_inverter_4.A ring_0/skullfet_inverter_3.A VPWR.t59 VPWR.t58 sky130_fd_pr__pfet_01v8 ad=6.2694 pd=26.64 as=4.4307 ps=10.9 w=4.05 l=0.4
X92 ring_0/skullfet_inverter_14.A ring_0/skullfet_inverter_13.A VGND.t64 VGND.t63 sky130_fd_pr__nfet_01v8 ad=6.4314 pd=26.72 as=4.2687 ps=10.82 w=4.05 l=0.4
X93 a_13425_43723# a_13296_43997# a_13004_43697# VGND.t21 sky130_fd_pr__nfet_01v8 ad=0.0989 pd=0.995 as=0.0684 ps=0.74 w=0.36 l=0.15
X94 ring_0/skullfet_inverter_20.Y ring_0/skullfet_inverter_20.A VPWR.t105 VPWR.t104 sky130_fd_pr__pfet_01v8 ad=6.2694 pd=26.64 as=4.4307 ps=10.9 w=4.05 l=0.4
X95 a_12637_43697# a_12732_43697# VGND.t44 VGND.t43 sky130_fd_pr__nfet_01v8 ad=0.1092 pd=1.36 as=0.097 ps=0.975 w=0.42 l=0.15
X96 a_13672_44089# a_13425_43723# VPWR.t35 VPWR.t34 sky130_fd_pr__pfet_01v8_hvt ad=0.07665 pd=0.785 as=0.178875 ps=1.26 w=0.42 l=0.15
X97 ring_0/skullfet_inverter_18.A ring_0/skullfet_inverter_17.A VGND.t75 VGND.t74 sky130_fd_pr__nfet_01v8 ad=6.4314 pd=26.72 as=4.2687 ps=10.82 w=4.05 l=0.4
X98 a_13425_43723# a_13289_43697# a_13004_43697# VPWR.t85 sky130_fd_pr__pfet_01v8_hvt ad=0.1095 pd=1.075 as=0.0567 ps=0.69 w=0.42 l=0.15
X99 a_13496_43697# a_13289_43697# a_13672_44089# VPWR.t84 sky130_fd_pr__pfet_01v8_hvt ad=0.06825 pd=0.745 as=0.07665 ps=0.785 w=0.42 l=0.15
X100 VPWR.t61 a_14569_43697# freq_divider_0.sky130_fd_sc_hd__dfxbp_1_2.Q_N VPWR.t60 sky130_fd_pr__pfet_01v8_hvt ad=0.154 pd=1.335 as=0.26 ps=2.52 w=1 l=0.15
X101 a_15357_43723# a_15228_43997# a_14936_43697# VGND.t21 sky130_fd_pr__nfet_01v8 ad=0.0989 pd=0.995 as=0.0684 ps=0.74 w=0.36 l=0.15
X102 VPWR.t19 freq_divider_0.sky130_fd_sc_hd__dfxbp_1_2.Q_N a_15775_43723# VPWR.t18 sky130_fd_pr__pfet_01v8_hvt ad=0.1092 pd=1.36 as=0.05775 ps=0.695 w=0.42 l=0.15
X103 VPWR.t29 ring_0/skullfet_inverter_14.A ring_0/skullfet_inverter_15.A VPWR.t28 sky130_fd_pr__pfet_01v8 ad=4.4307 pd=10.9 as=6.2694 ps=26.64 w=4.05 l=0.4
X104 a_17153_43697# uo_out[0].t5 VGND.t66 VGND.t10 sky130_fd_pr__nfet_01v8 ad=0.1092 pd=1.36 as=0.0567 ps=0.69 w=0.42 l=0.15
X105 a_13843_43723# a_13289_43697# a_13496_43697# VGND.t21 sky130_fd_pr__nfet_01v8 ad=0.0813 pd=0.83 as=0.0621 ps=0.705 w=0.36 l=0.15
X106 a_17509_43723# a_17289_43723# VGND.t69 VGND.t57 sky130_fd_pr__nfet_01v8 ad=0.0696 pd=0.765 as=0.12095 ps=1.085 w=0.42 l=0.15
X107 VGND.t59 a_16596_43697# uo_out[1].t0 VGND.t15 sky130_fd_pr__nfet_01v8 ad=0.08775 pd=0.92 as=0.169 ps=1.82 w=0.65 l=0.15
X108 a_13004_43697# a_13289_43697# a_13224_43723# VGND.t21 sky130_fd_pr__nfet_01v8 ad=0.0684 pd=0.74 as=0.066 ps=0.745 w=0.36 l=0.15
X109 VGND.t62 a_17360_43697# a_17289_43723# VGND.t61 sky130_fd_pr__nfet_01v8 ad=0.12095 pd=1.085 as=0.0989 ps=0.995 w=0.64 l=0.15
X110 VGND.t37 a_16501_43697# freq_divider_0.sky130_fd_sc_hd__dfxbp_1_1.Q_N VGND.t2 sky130_fd_pr__nfet_01v8 ad=0.097 pd=0.975 as=0.169 ps=1.82 w=0.65 l=0.15
X111 VPWR.t25 a_15221_43697# a_15228_43997# VPWR.t24 sky130_fd_pr__pfet_01v8_hvt ad=0.0864 pd=0.91 as=0.1664 ps=1.8 w=0.64 l=0.15
X112 VGND.t56 freq_divider_0.sky130_fd_sc_hd__dfxbp_1_3.Q_N a_13843_43723# VGND.t8 sky130_fd_pr__nfet_01v8 ad=0.1092 pd=1.36 as=0.0813 ps=0.83 w=0.42 l=0.15
X113 a_15775_43723# a_15228_43997# a_15428_43697# VPWR.t100 sky130_fd_pr__pfet_01v8_hvt ad=0.05775 pd=0.695 as=0.06825 ps=0.745 w=0.42 l=0.15
X114 ring_0/skullfet_inverter_19.A ring_0/skullfet_inverter_18.A VGND.t82 VGND.t81 sky130_fd_pr__nfet_01v8 ad=6.4314 pd=26.72 as=4.2687 ps=10.82 w=4.05 l=0.4
X115 a_16596_43697# a_16868_43697# VPWR.t17 VPWR.t16 sky130_fd_pr__pfet_01v8_hvt ad=0.27 pd=2.54 as=0.135 ps=1.27 w=1 l=0.15
X116 a_14569_43697# a_14664_43697# VPWR.t63 VPWR.t62 sky130_fd_pr__pfet_01v8_hvt ad=0.1664 pd=1.8 as=0.154 ps=1.335 w=0.64 l=0.15
X117 VGND.t77 ring_0/skullfet_inverter_20.A ring_0/skullfet_inverter_20.Y VGND.t76 sky130_fd_pr__nfet_01v8 ad=4.2687 pd=10.82 as=6.4314 ps=26.72 w=4.05 l=0.4
X118 ring_0/skullfet_inverter_17.A ring_0/skullfet_inverter_16.A VGND.t55 VGND.t54 sky130_fd_pr__nfet_01v8 ad=6.4314 pd=26.72 as=4.2687 ps=10.82 w=4.05 l=0.4
X119 a_17707_43723# a_17160_43997# a_17360_43697# VPWR.t68 sky130_fd_pr__pfet_01v8_hvt ad=0.05775 pd=0.695 as=0.06825 ps=0.745 w=0.42 l=0.15
X120 VPWR.t75 a_16596_43697# uo_out[1].t1 VPWR.t74 sky130_fd_pr__pfet_01v8_hvt ad=0.135 pd=1.27 as=0.26 ps=2.52 w=1 l=0.15
X121 VGND.t34 ring_0/skullfet_inverter_8.A ring_0/skullfet_inverter_9.A VGND.t33 sky130_fd_pr__nfet_01v8 ad=4.2687 pd=10.82 as=6.4314 ps=26.72 w=4.05 l=0.4
X122 VPWR.t51 a_13496_43697# a_13425_43723# VPWR.t50 sky130_fd_pr__pfet_01v8_hvt ad=0.178875 pd=1.26 as=0.1095 ps=1.075 w=0.75 l=0.15
X123 ring_0/skullfet_inverter_3.A ring_0/skullfet_inverter_2.A VPWR.t43 VPWR.t42 sky130_fd_pr__pfet_01v8 ad=6.2694 pd=26.64 as=4.4307 ps=10.9 w=4.05 l=0.4
X124 VGND.t70 a_17153_43697# a_17160_43997# VGND.t10 sky130_fd_pr__nfet_01v8 ad=0.0567 pd=0.69 as=0.1092 ps=1.36 w=0.42 l=0.15
X125 a_17088_43723# a_16596_43697# VGND.t58 VGND.t57 sky130_fd_pr__nfet_01v8 ad=0.066 pd=0.745 as=0.1092 ps=1.36 w=0.42 l=0.15
R0 uo_out[2].n2 uo_out[2].t1 313.104
R1 uo_out[2].n0 uo_out[2].t2 294.557
R2 uo_out[2].t0 uo_out[2].n2 265.769
R3 uo_out[2] uo_out[2].t0 262.318
R4 uo_out[2].n0 uo_out[2].t3 211.01
R5 uo_out[2].n1 uo_out[2].n0 152
R6 uo_out[2].n5 uo_out[2] 12.1482
R7 uo_out[2].n4 uo_out[2].n1 11.6311
R8 uo_out[2].n4 uo_out[2].n3 9.3005
R9 uo_out[2].n3 uo_out[2] 7.17626
R10 uo_out[2].n3 uo_out[2].n2 4.84898
R11 uo_out[2].n5 uo_out[2].n4 4.51042
R12 uo_out[2].n1 uo_out[2] 1.37896
R13 uo_out[2] uo_out[2].n5 0.0730806
R14 VPWR.n112 VPWR.t105 739.681
R15 VPWR.n114 VPWR.t111 739.681
R16 VPWR.n116 VPWR.t109 739.681
R17 VPWR.n150 VPWR.t47 739.681
R18 VPWR.n148 VPWR.t83 739.681
R19 VPWR.n84 VPWR.t31 739.681
R20 VPWR.n5 VPWR.t97 739.681
R21 VPWR.n85 VPWR.t29 739.681
R22 VPWR.n109 VPWR.t39 739.681
R23 VPWR.n122 VPWR.t71 739.681
R24 VPWR.n119 VPWR.t99 739.681
R25 VPWR.n153 VPWR.t1 739.681
R26 VPWR.n82 VPWR.t7 739.681
R27 VPWR.n80 VPWR.t41 739.681
R28 VPWR.n53 VPWR.t103 739.681
R29 VPWR.n30 VPWR.t5 739.681
R30 VPWR.n9 VPWR.t59 739.681
R31 VPWR.n6 VPWR.t43 739.681
R32 VPWR.n3 VPWR.t13 739.681
R33 VPWR.n56 VPWR.t21 739.681
R34 VPWR.n159 VPWR.t49 739.681
R35 VPWR.n112 VPWR.t104 707.852
R36 VPWR.n114 VPWR.t110 707.852
R37 VPWR.n116 VPWR.t108 707.852
R38 VPWR.n150 VPWR.t46 707.852
R39 VPWR.n148 VPWR.t82 707.852
R40 VPWR.n153 VPWR.t0 707.852
R41 VPWR.n84 VPWR.t30 707.852
R42 VPWR.n82 VPWR.t6 707.852
R43 VPWR.n80 VPWR.t40 707.852
R44 VPWR.n53 VPWR.t102 707.852
R45 VPWR.n30 VPWR.t4 707.852
R46 VPWR.n9 VPWR.t58 707.852
R47 VPWR.n6 VPWR.t42 707.852
R48 VPWR.n5 VPWR.t96 707.852
R49 VPWR.n3 VPWR.t12 707.852
R50 VPWR.n56 VPWR.t20 707.852
R51 VPWR.n159 VPWR.t48 707.852
R52 VPWR.n85 VPWR.t28 707.852
R53 VPWR.n109 VPWR.t38 707.852
R54 VPWR.n122 VPWR.t70 707.852
R55 VPWR.n119 VPWR.t98 707.852
R56 VPWR.n318 VPWR.t55 667.734
R57 VPWR.n286 VPWR.t67 667.734
R58 VPWR.n358 VPWR.t79 667.734
R59 VPWR.n333 VPWR.t73 666.677
R60 VPWR.n272 VPWR.t19 666.677
R61 VPWR.n238 VPWR.t11 666.677
R62 VPWR.t16 VPWR.t78 624.456
R63 VPWR.t66 VPWR.t2 624.456
R64 VPWR.t54 VPWR.t32 624.456
R65 VPWR.n336 VPWR.n335 604.394
R66 VPWR.n267 VPWR.n266 604.394
R67 VPWR.n376 VPWR.n375 604.394
R68 VPWR.t10 VPWR.t92 556.386
R69 VPWR.t76 VPWR.t74 556.386
R70 VPWR.t24 VPWR.t18 556.386
R71 VPWR.t64 VPWR.t62 556.386
R72 VPWR.t86 VPWR.t72 556.386
R73 VPWR.t52 VPWR.t56 556.386
R74 VPWR.n251 VPWR.t44 414.33
R75 VPWR.t60 VPWR.n342 414.33
R76 VPWR.t80 VPWR.t90 390.654
R77 VPWR.t106 VPWR.t36 390.654
R78 VPWR.t34 VPWR.t50 390.654
R79 VPWR.t78 VPWR.t69 337.384
R80 VPWR.t101 VPWR.t66 337.384
R81 VPWR.t112 VPWR.t54 337.384
R82 VPWR.n316 VPWR.n306 333.348
R83 VPWR.n288 VPWR.n258 333.348
R84 VPWR.n356 VPWR.n246 333.348
R85 VPWR.n302 VPWR.n301 320.976
R86 VPWR.n279 VPWR.n262 320.976
R87 VPWR.n243 VPWR.n242 320.976
R88 VPWR.t90 VPWR.t94 304.829
R89 VPWR.t26 VPWR.t106 304.829
R90 VPWR.t84 VPWR.t34 304.829
R91 VPWR.t44 VPWR.t76 287.072
R92 VPWR.t62 VPWR.t60 287.072
R93 VPWR.t56 VPWR.t22 287.072
R94 VPWR.t94 VPWR.t68 281.154
R95 VPWR.t95 VPWR.t80 281.154
R96 VPWR.t100 VPWR.t26 281.154
R97 VPWR.t36 VPWR.t27 281.154
R98 VPWR.t113 VPWR.t84 281.154
R99 VPWR.t50 VPWR.t85 281.154
R100 VPWR.n343 VPWR.n251 272.274
R101 VPWR.n343 VPWR 272.274
R102 VPWR.n342 VPWR.n341 272.274
R103 VPWR.n341 VPWR 272.274
R104 VPWR.t68 VPWR.t10 251.559
R105 VPWR.t18 VPWR.t100 251.559
R106 VPWR.t72 VPWR.t113 251.559
R107 VPWR.t92 VPWR.t88 248.599
R108 VPWR.t69 VPWR.t95 248.599
R109 VPWR.t74 VPWR.t16 248.599
R110 VPWR.t8 VPWR.t24 248.599
R111 VPWR.t27 VPWR.t101 248.599
R112 VPWR.t2 VPWR.t64 248.599
R113 VPWR.t14 VPWR.t86 248.599
R114 VPWR.t85 VPWR.t112 248.599
R115 VPWR.t32 VPWR.t52 248.599
R116 VPWR.n310 VPWR.n309 240.522
R117 VPWR.n294 VPWR.n255 240.522
R118 VPWR.n350 VPWR.n349 240.522
R119 VPWR.n341 VPWR.n340 213.119
R120 VPWR.n342 VPWR.n252 213.119
R121 VPWR.n344 VPWR.n343 213.119
R122 VPWR.n251 VPWR.n249 213.119
R123 VPWR.n301 VPWR.t35 113.98
R124 VPWR.n262 VPWR.t107 113.98
R125 VPWR.n242 VPWR.t91 113.98
R126 VPWR.t88 VPWR 91.745
R127 VPWR VPWR.t8 91.745
R128 VPWR VPWR.t14 91.745
R129 VPWR.n309 VPWR.t57 61.9872
R130 VPWR.n255 VPWR.t63 61.9872
R131 VPWR.n349 VPWR.t77 61.9872
R132 VPWR.n335 VPWR.t15 41.5552
R133 VPWR.n335 VPWR.t87 41.5552
R134 VPWR.n266 VPWR.t9 41.5552
R135 VPWR.n266 VPWR.t25 41.5552
R136 VPWR.n375 VPWR.t89 41.5552
R137 VPWR.n375 VPWR.t93 41.5552
R138 VPWR.n301 VPWR.t51 35.4605
R139 VPWR.n262 VPWR.t37 35.4605
R140 VPWR.n242 VPWR.t81 35.4605
R141 VPWR.n315 VPWR.n307 34.6358
R142 VPWR.n311 VPWR.n307 34.6358
R143 VPWR.n329 VPWR.n299 34.6358
R144 VPWR.n329 VPWR.n328 34.6358
R145 VPWR.n328 VPWR.n327 34.6358
R146 VPWR.n324 VPWR.n323 34.6358
R147 VPWR.n323 VPWR.n322 34.6358
R148 VPWR.n322 VPWR.n304 34.6358
R149 VPWR.n289 VPWR.n256 34.6358
R150 VPWR.n293 VPWR.n256 34.6358
R151 VPWR.n274 VPWR.n273 34.6358
R152 VPWR.n274 VPWR.n263 34.6358
R153 VPWR.n278 VPWR.n263 34.6358
R154 VPWR.n281 VPWR.n280 34.6358
R155 VPWR.n281 VPWR.n260 34.6358
R156 VPWR.n285 VPWR.n260 34.6358
R157 VPWR.n355 VPWR.n247 34.6358
R158 VPWR.n351 VPWR.n247 34.6358
R159 VPWR.n370 VPWR.n369 34.6358
R160 VPWR.n369 VPWR.n368 34.6358
R161 VPWR.n368 VPWR.n240 34.6358
R162 VPWR.n364 VPWR.n363 34.6358
R163 VPWR.n363 VPWR.n362 34.6358
R164 VPWR.n362 VPWR.n244 34.6358
R165 VPWR.n317 VPWR.n316 32.0005
R166 VPWR.n288 VPWR.n287 32.0005
R167 VPWR.n357 VPWR.n356 32.0005
R168 VPWR.n377 VPWR.n376 30.7593
R169 VPWR.n318 VPWR.n317 30.4946
R170 VPWR.n287 VPWR.n286 30.4946
R171 VPWR.n358 VPWR.n357 30.4946
R172 VPWR.n309 VPWR.t23 30.1692
R173 VPWR.n255 VPWR.t61 30.1692
R174 VPWR.n349 VPWR.t45 30.1692
R175 VPWR.n333 VPWR.n299 27.4829
R176 VPWR.n295 VPWR.n294 27.4829
R177 VPWR.n273 VPWR.n272 27.4829
R178 VPWR.n350 VPWR.n348 27.4829
R179 VPWR.n370 VPWR.n238 27.4829
R180 VPWR.n306 VPWR.t33 26.5955
R181 VPWR.n306 VPWR.t53 26.5955
R182 VPWR.n258 VPWR.t3 26.5955
R183 VPWR.n258 VPWR.t65 26.5955
R184 VPWR.n246 VPWR.t17 26.5955
R185 VPWR.n246 VPWR.t75 26.5955
R186 VPWR.n311 VPWR.n310 25.6005
R187 VPWR.n294 VPWR.n293 25.6005
R188 VPWR.n351 VPWR.n350 25.6005
R189 VPWR.n340 VPWR.n253 23.7181
R190 VPWR.n295 VPWR.n252 23.7181
R191 VPWR.n344 VPWR.n250 23.7181
R192 VPWR.n348 VPWR.n249 23.7181
R193 VPWR.n336 VPWR.n334 22.9652
R194 VPWR.n271 VPWR.n267 22.9652
R195 VPWR.n376 VPWR.n374 22.9652
R196 VPWR.n334 VPWR.n333 21.8358
R197 VPWR.n272 VPWR.n271 21.8358
R198 VPWR.n374 VPWR.n238 21.8358
R199 VPWR.n377 VPWR.n237 21.795
R200 VPWR.n336 VPWR.n253 21.4593
R201 VPWR.n267 VPWR.n250 21.4593
R202 VPWR.n327 VPWR.n302 18.4476
R203 VPWR.n279 VPWR.n278 18.4476
R204 VPWR.n243 VPWR.n240 18.4476
R205 VPWR.n324 VPWR.n302 16.1887
R206 VPWR.n280 VPWR.n279 16.1887
R207 VPWR.n364 VPWR.n243 16.1887
R208 VPWR.n318 VPWR.n304 15.0593
R209 VPWR.n286 VPWR.n285 15.0593
R210 VPWR.n358 VPWR.n244 15.0593
R211 VPWR.n154 VPWR.n153 13.377
R212 VPWR.n83 VPWR.n82 13.377
R213 VPWR.n81 VPWR.n80 13.377
R214 VPWR.n54 VPWR.n53 13.377
R215 VPWR.n31 VPWR.n30 13.377
R216 VPWR.n10 VPWR.n9 13.377
R217 VPWR.n7 VPWR.n6 13.377
R218 VPWR.n4 VPWR.n3 13.377
R219 VPWR.n57 VPWR.n56 13.377
R220 VPWR.n160 VPWR.n159 13.377
R221 VPWR VPWR.n112 13.3202
R222 VPWR.n115 VPWR.n114 13.3202
R223 VPWR VPWR.n116 13.3202
R224 VPWR VPWR.n150 13.3202
R225 VPWR.n149 VPWR.n148 13.3202
R226 VPWR VPWR.n84 13.3202
R227 VPWR VPWR.n5 13.3202
R228 VPWR.n86 VPWR.n85 13.3202
R229 VPWR.n110 VPWR.n109 13.3202
R230 VPWR.n123 VPWR.n122 13.3202
R231 VPWR.n120 VPWR.n119 13.3202
R232 VPWR.n340 VPWR.n252 12.8005
R233 VPWR.n344 VPWR.n249 12.8005
R234 VPWR.n113 VPWR 9.7375
R235 VPWR.n117 VPWR 9.39357
R236 VPWR.n376 VPWR.n0 9.3005
R237 VPWR.n374 VPWR.n373 9.3005
R238 VPWR.n372 VPWR.n238 9.3005
R239 VPWR.n371 VPWR.n370 9.3005
R240 VPWR.n369 VPWR.n239 9.3005
R241 VPWR.n368 VPWR.n367 9.3005
R242 VPWR.n366 VPWR.n240 9.3005
R243 VPWR.n365 VPWR.n364 9.3005
R244 VPWR.n363 VPWR.n241 9.3005
R245 VPWR.n362 VPWR.n361 9.3005
R246 VPWR.n360 VPWR.n244 9.3005
R247 VPWR.n359 VPWR.n358 9.3005
R248 VPWR.n357 VPWR.n245 9.3005
R249 VPWR.n355 VPWR.n354 9.3005
R250 VPWR.n353 VPWR.n247 9.3005
R251 VPWR.n352 VPWR.n351 9.3005
R252 VPWR.n350 VPWR.n248 9.3005
R253 VPWR.n348 VPWR.n347 9.3005
R254 VPWR.n346 VPWR.n249 9.3005
R255 VPWR.n345 VPWR.n344 9.3005
R256 VPWR.n268 VPWR.n250 9.3005
R257 VPWR.n269 VPWR.n267 9.3005
R258 VPWR.n271 VPWR.n270 9.3005
R259 VPWR.n272 VPWR.n265 9.3005
R260 VPWR.n273 VPWR.n264 9.3005
R261 VPWR.n275 VPWR.n274 9.3005
R262 VPWR.n276 VPWR.n263 9.3005
R263 VPWR.n278 VPWR.n277 9.3005
R264 VPWR.n280 VPWR.n261 9.3005
R265 VPWR.n282 VPWR.n281 9.3005
R266 VPWR.n283 VPWR.n260 9.3005
R267 VPWR.n285 VPWR.n284 9.3005
R268 VPWR.n286 VPWR.n259 9.3005
R269 VPWR.n287 VPWR.n257 9.3005
R270 VPWR.n290 VPWR.n289 9.3005
R271 VPWR.n291 VPWR.n256 9.3005
R272 VPWR.n293 VPWR.n292 9.3005
R273 VPWR.n294 VPWR.n254 9.3005
R274 VPWR.n296 VPWR.n295 9.3005
R275 VPWR.n297 VPWR.n252 9.3005
R276 VPWR.n340 VPWR.n339 9.3005
R277 VPWR.n338 VPWR.n253 9.3005
R278 VPWR.n337 VPWR.n336 9.3005
R279 VPWR.n334 VPWR.n298 9.3005
R280 VPWR.n333 VPWR.n332 9.3005
R281 VPWR.n331 VPWR.n299 9.3005
R282 VPWR.n330 VPWR.n329 9.3005
R283 VPWR.n328 VPWR.n300 9.3005
R284 VPWR.n327 VPWR.n326 9.3005
R285 VPWR.n325 VPWR.n324 9.3005
R286 VPWR.n323 VPWR.n303 9.3005
R287 VPWR.n322 VPWR.n321 9.3005
R288 VPWR.n320 VPWR.n304 9.3005
R289 VPWR.n319 VPWR.n318 9.3005
R290 VPWR.n317 VPWR.n305 9.3005
R291 VPWR.n315 VPWR.n314 9.3005
R292 VPWR.n313 VPWR.n307 9.3005
R293 VPWR.n312 VPWR.n311 9.3005
R294 VPWR.n155 VPWR.n154 8.51977
R295 VPWR.n232 VPWR 8.13646
R296 VPWR.n121 VPWR.n118 7.53241
R297 VPWR.n157 VPWR.n83 7.53109
R298 VPWR.n158 VPWR.n81 7.45619
R299 VPWR.n310 VPWR.n308 7.4049
R300 VPWR.n151 VPWR 7.19357
R301 VPWR.n161 VPWR.n160 6.79323
R302 VPWR.n233 VPWR.n4 6.76538
R303 VPWR.n156 VPWR 6.40107
R304 VPWR.n121 VPWR.n120 6.34337
R305 VPWR.n124 VPWR.n123 6.19552
R306 VPWR.n117 VPWR.n115 6.1805
R307 VPWR.n231 VPWR.n7 6.08268
R308 VPWR.n118 VPWR.n113 6.07746
R309 VPWR.n58 VPWR.n57 6.01772
R310 VPWR.n229 VPWR.n10 6.01019
R311 VPWR.n32 VPWR.n31 5.71852
R312 VPWR.n55 VPWR.n54 5.65925
R313 VPWR.n111 VPWR.n110 5.44488
R314 VPWR.n87 VPWR.n86 5.3655
R315 VPWR.n151 VPWR.n149 5.233
R316 VPWR.n231 VPWR.n230 4.17361
R317 VPWR.n155 VPWR.n152 4.09662
R318 VPWR.n237 VPWR 3.1965
R319 VPWR.n186 VPWR.n185 3.07281
R320 VPWR.n316 VPWR.n315 2.63579
R321 VPWR.n289 VPWR.n288 2.63579
R322 VPWR.n356 VPWR.n355 2.63579
R323 VPWR.n237 VPWR.n236 1.96192
R324 VPWR.n118 VPWR.n117 1.25038
R325 VPWR.n152 VPWR.n147 1.04638
R326 VPWR.n156 VPWR.n155 0.926193
R327 VPWR.n124 VPWR.n121 0.897709
R328 VPWR.n157 VPWR.n156 0.877511
R329 VPWR.n224 VPWR.n223 0.861295
R330 VPWR.n232 VPWR.n231 0.838747
R331 VPWR.n233 VPWR.n232 0.810795
R332 VPWR.n113 VPWR.n2 0.786394
R333 VPWR.n162 VPWR.n158 0.69817
R334 VPWR.n125 VPWR.n124 0.574375
R335 VPWR.n158 VPWR.n157 0.53698
R336 VPWR.n225 VPWR.n224 0.507602
R337 VPWR.n185 VPWR.n184 0.491158
R338 VPWR.n152 VPWR.n151 0.456575
R339 VPWR.n226 VPWR.n225 0.391496
R340 VPWR.n187 VPWR.n186 0.380996
R341 VPWR.n235 VPWR.n234 0.341219
R342 VPWR.n226 VPWR.n8 0.325974
R343 VPWR.n125 VPWR.n111 0.323617
R344 VPWR.n230 VPWR.n8 0.320751
R345 VPWR.n188 VPWR.n187 0.263105
R346 VPWR.n189 VPWR.n188 0.23221
R347 VPWR.n228 VPWR.n8 0.198913
R348 VPWR.n227 VPWR.n226 0.195812
R349 VPWR.n190 VPWR.n189 0.193814
R350 VPWR.n225 VPWR.n11 0.192808
R351 VPWR.n224 VPWR.n12 0.189894
R352 VPWR.n235 VPWR.n2 0.188146
R353 VPWR.n191 VPWR.n190 0.183989
R354 VPWR.n163 VPWR.n162 0.169675
R355 VPWR.n184 VPWR.n183 0.168706
R356 VPWR.n186 VPWR.n52 0.162658
R357 VPWR.n192 VPWR.n191 0.157627
R358 VPWR.n308 VPWR 0.156264
R359 VPWR.n14 VPWR.n13 0.154418
R360 VPWR.n161 VPWR.n79 0.154418
R361 VPWR.n208 VPWR.n28 0.153485
R362 VPWR.n193 VPWR.n192 0.148565
R363 VPWR.n89 VPWR.n88 0.147626
R364 VPWR.n312 VPWR.n308 0.144904
R365 VPWR.n187 VPWR.n51 0.143882
R366 VPWR.n188 VPWR.n50 0.142412