* NGSPICE file created from tt_um_oscillating_bones.ext - technology: sky130A

.subckt tt_um_oscillating_bones clk ena rst_n ui_in[0] ui_in[1] ui_in[2] ui_in[3]
+ ui_in[4] ui_in[5] ui_in[6] ui_in[7] uio_in[0] uio_in[1] uio_in[2] uio_in[3] uio_in[4]
+ uio_in[5] uio_in[6] uio_in[7] uio_oe[0] uio_oe[1] uio_oe[2] uio_oe[3] uio_oe[4]
+ uio_oe[5] uio_oe[6] uio_oe[7] uio_out[0] uio_out[1] uio_out[2] uio_out[3] uio_out[4]
+ uio_out[5] uio_out[6] uio_out[7] uo_out[2] uo_out[4] uo_out[5] uo_out[6] uo_out[7]
+ VGND uo_out[0] uo_out[1] uo_out[3] VPWR
X0 a_13289_43697# uo_out[2].t2 VPWR.t47 freq_divider_0.sky130_fd_sc_hd__tap_2_2.VPB sky130_fd_pr__pfet_01v8_hvt ad=0.1664 pd=1.8 as=0.0864 ps=0.91 w=0.64 l=0.15
X1 a_16868_43697# a_17160_43997# a_17111_44089# freq_divider_0.sky130_fd_sc_hd__tap_2_2.VPB sky130_fd_pr__pfet_01v8_hvt ad=0.0567 pd=0.69 as=0.0882 ps=0.84 w=0.42 l=0.15
X2 a_16596_43697# a_16868_43697# VGND.t60 VGND.t57 sky130_fd_pr__nfet_01v8 ad=0.169 pd=1.82 as=0.08775 ps=0.92 w=0.65 l=0.15
X3 VPWR.t16 a_12637_43697# freq_divider_0.sky130_fd_sc_hd__dfxbp_1_3.Q_N freq_divider_0.sky130_fd_sc_hd__tap_2_2.VPB sky130_fd_pr__pfet_01v8_hvt ad=0.154 pd=1.335 as=0.26 ps=2.52 w=1 l=0.15
X4 VGND.t7 uo_out[0].t2 ring_0/skullfet_inverter_6.A VGND.t6 sky130_fd_pr__nfet_01v8 ad=4.2687 pd=10.82 as=6.4314 ps=26.72 w=4.05 l=0.4
X5 a_17360_43697# a_17160_43997# a_17509_43723# VGND.t65 sky130_fd_pr__nfet_01v8 ad=0.0621 pd=0.705 as=0.0696 ps=0.765 w=0.36 l=0.15
X6 VGND.t46 a_14569_43697# freq_divider_0.sky130_fd_sc_hd__dfxbp_1_2.Q_N VGND.t0 sky130_fd_pr__nfet_01v8 ad=0.097 pd=0.975 as=0.169 ps=1.82 w=0.65 l=0.15
X7 VGND.t26 ring_0/skullfet_inverter_12.A ring_0/skullfet_inverter_13.A VGND.t25 sky130_fd_pr__nfet_01v8 ad=4.2687 pd=10.82 as=6.4314 ps=26.72 w=4.05 l=0.4
X8 a_15221_43697# uo_out[1].t2 VPWR.t8 freq_divider_0.sky130_fd_sc_hd__tap_2_2.VPB sky130_fd_pr__pfet_01v8_hvt ad=0.1664 pd=1.8 as=0.0864 ps=0.91 w=0.64 l=0.15
X9 VPWR.t18 freq_divider_0.sky130_fd_sc_hd__dfxbp_1_3.Q_N a_13843_43723# freq_divider_0.sky130_fd_sc_hd__tap_2_2.VPB sky130_fd_pr__pfet_01v8_hvt ad=0.1092 pd=1.36 as=0.05775 ps=0.695 w=0.42 l=0.15
X10 a_15179_44089# a_14664_43697# VPWR.t68 freq_divider_0.sky130_fd_sc_hd__tap_2_2.VPB sky130_fd_pr__pfet_01v8_hvt ad=0.0882 pd=0.84 as=0.1113 ps=1.37 w=0.42 l=0.15
X11 VGND.t76 ring_0/skullfet_inverter_19.A ring_0/skullfet_inverter_20.A VGND.t75 sky130_fd_pr__nfet_01v8 ad=4.2687 pd=10.82 as=6.4314 ps=26.72 w=4.05 l=0.4
X12 ring_0/skullfet_inverter_6.A uo_out[0].t3 VPWR.t7 VPWR.t6 sky130_fd_pr__pfet_01v8 ad=6.2694 pd=26.64 as=4.4307 ps=10.9 w=4.05 l=0.4
X13 a_15577_43723# a_15357_43723# VGND.t82 VGND.t8 sky130_fd_pr__nfet_01v8 ad=0.0696 pd=0.765 as=0.12095 ps=1.085 w=0.42 l=0.15
X14 VGND.t79 a_14664_43697# uo_out[2].t0 VGND.t0 sky130_fd_pr__nfet_01v8 ad=0.08775 pd=0.92 as=0.169 ps=1.82 w=0.65 l=0.15
X15 VPWR.t46 a_13289_43697# a_13296_43997# freq_divider_0.sky130_fd_sc_hd__tap_2_2.VPB sky130_fd_pr__pfet_01v8_hvt ad=0.0864 pd=0.91 as=0.1664 ps=1.8 w=0.64 l=0.15
X16 VGND.t61 a_15221_43697# a_15228_43997# VGND.t8 sky130_fd_pr__nfet_01v8 ad=0.0567 pd=0.69 as=0.1092 ps=1.36 w=0.42 l=0.15
X17 VGND.t52 ring_0/skullfet_inverter_2.A ring_0/skullfet_inverter_3.A VGND.t51 sky130_fd_pr__nfet_01v8 ad=4.2687 pd=10.82 as=6.4314 ps=26.72 w=4.05 l=0.4
X18 a_13843_43723# a_13296_43997# a_13496_43697# freq_divider_0.sky130_fd_sc_hd__tap_2_2.VPB sky130_fd_pr__pfet_01v8_hvt ad=0.05775 pd=0.695 as=0.06825 ps=0.745 w=0.42 l=0.15
X19 ring_0/skullfet_inverter_13.A ring_0/skullfet_inverter_12.A VPWR.t22 VPWR.t21 sky130_fd_pr__pfet_01v8 ad=6.2694 pd=26.64 as=4.4307 ps=10.9 w=4.05 l=0.4
X20 VGND.t42 ring_0/skullfet_inverter_7.A ring_0/skullfet_inverter_8.A VGND.t41 sky130_fd_pr__nfet_01v8 ad=4.2687 pd=10.82 as=6.4314 ps=26.72 w=4.05 l=0.4
X21 a_16501_43697# a_16596_43697# VGND.t59 VGND.t55 sky130_fd_pr__nfet_01v8 ad=0.1092 pd=1.36 as=0.097 ps=0.975 w=0.42 l=0.15
X22 a_12637_43697# a_12732_43697# VPWR.t32 freq_divider_0.sky130_fd_sc_hd__tap_2_2.VPB sky130_fd_pr__pfet_01v8_hvt ad=0.1664 pd=1.8 as=0.154 ps=1.335 w=0.64 l=0.15
X23 ring_0/skullfet_inverter_16.A ring_0/skullfet_inverter_15.A VGND.t15 VGND.t14 sky130_fd_pr__nfet_01v8 ad=6.4314 pd=26.72 as=4.2687 ps=10.82 w=4.05 l=0.4
X24 VGND.t68 ring_0/skullfet_inverter_11.A ring_0/skullfet_inverter_12.A VGND.t67 sky130_fd_pr__nfet_01v8 ad=4.2687 pd=10.82 as=6.4314 ps=26.72 w=4.05 l=0.4
X25 a_17289_43723# a_17153_43697# a_16868_43697# freq_divider_0.sky130_fd_sc_hd__tap_2_2.VPB sky130_fd_pr__pfet_01v8_hvt ad=0.1095 pd=1.075 as=0.0567 ps=0.69 w=0.42 l=0.15
X26 a_13224_43723# a_12732_43697# VGND.t40 VGND.t8 sky130_fd_pr__nfet_01v8 ad=0.066 pd=0.745 as=0.1092 ps=1.36 w=0.42 l=0.15
X27 VPWR.t67 a_14664_43697# uo_out[2].t1 freq_divider_0.sky130_fd_sc_hd__tap_2_2.VPB sky130_fd_pr__pfet_01v8_hvt ad=0.135 pd=1.27 as=0.26 ps=2.52 w=1 l=0.15
X28 ring_0/skullfet_inverter_15.A ring_0/skullfet_inverter_14.A VGND.t28 VGND.t27 sky130_fd_pr__nfet_01v8 ad=6.4314 pd=26.72 as=4.2687 ps=10.82 w=4.05 l=0.4
X29 VPWR.t61 ring_0/skullfet_inverter_17.A ring_0/skullfet_inverter_18.A VPWR.t60 sky130_fd_pr__pfet_01v8 ad=4.4307 pd=10.9 as=6.2694 ps=26.64 w=4.05 l=0.4
X30 VGND.t70 ring_0/skullfet_inverter_1.A ring_0/skullfet_inverter_2.A VGND.t69 sky130_fd_pr__nfet_01v8 ad=4.2687 pd=10.82 as=6.4314 ps=26.72 w=4.05 l=0.4
X31 a_17707_43723# a_17153_43697# a_17360_43697# VGND.t66 sky130_fd_pr__nfet_01v8 ad=0.0813 pd=0.83 as=0.0621 ps=0.705 w=0.36 l=0.15
X32 VGND.t13 ring_0/skullfet_inverter_20.Y ring_0/skullfet_inverter_1.A VGND.t12 sky130_fd_pr__nfet_01v8 ad=4.2687 pd=10.82 as=6.4314 ps=26.72 w=4.05 l=0.4
X33 a_15156_43723# a_14664_43697# VGND.t78 VGND.t8 sky130_fd_pr__nfet_01v8 ad=0.066 pd=0.745 as=0.1092 ps=1.36 w=0.42 l=0.15
X34 a_14936_43697# a_15228_43997# a_15179_44089# freq_divider_0.sky130_fd_sc_hd__tap_2_2.VPB sky130_fd_pr__pfet_01v8_hvt ad=0.0567 pd=0.69 as=0.0882 ps=0.84 w=0.42 l=0.15
X35 a_13289_43697# uo_out[2].t3 VGND.t54 VGND.t8 sky130_fd_pr__nfet_01v8 ad=0.1092 pd=1.36 as=0.0567 ps=0.69 w=0.42 l=0.15
X36 ring_0/skullfet_inverter_8.A ring_0/skullfet_inverter_7.A VPWR.t36 VPWR.t35 sky130_fd_pr__pfet_01v8 ad=6.2694 pd=26.64 as=4.4307 ps=10.9 w=4.05 l=0.4
X37 ring_0/skullfet_inverter_12.A ring_0/skullfet_inverter_11.A VPWR.t57 VPWR.t56 sky130_fd_pr__pfet_01v8 ad=6.2694 pd=26.64 as=4.4307 ps=10.9 w=4.05 l=0.4
X38 ring_0/skullfet_inverter_2.A ring_0/skullfet_inverter_1.A VPWR.t59 VPWR.t58 sky130_fd_pr__pfet_01v8 ad=6.2694 pd=26.64 as=4.4307 ps=10.9 w=4.05 l=0.4
X39 ring_0/skullfet_inverter_9.A ring_0/skullfet_inverter_8.A VPWR.t38 VPWR.t37 sky130_fd_pr__pfet_01v8 ad=6.2694 pd=26.64 as=4.4307 ps=10.9 w=4.05 l=0.4
X40 VGND.t11 freq_divider_0.sky130_fd_sc_hd__dfxbp_1_1.Q_N a_17707_43723# VGND.t10 sky130_fd_pr__nfet_01v8 ad=0.1092 pd=1.36 as=0.0813 ps=0.83 w=0.42 l=0.15
X41 a_14664_43697# a_14936_43697# VGND.t1 VGND.t0 sky130_fd_pr__nfet_01v8 ad=0.169 pd=1.82 as=0.08775 ps=0.92 w=0.65 l=0.15
X42 a_15428_43697# a_15228_43997# a_15577_43723# VGND.t43 sky130_fd_pr__nfet_01v8 ad=0.0621 pd=0.705 as=0.0696 ps=0.765 w=0.36 l=0.15
X43 VGND.t18 a_12637_43697# freq_divider_0.sky130_fd_sc_hd__dfxbp_1_3.Q_N VGND.t0 sky130_fd_pr__nfet_01v8 ad=0.097 pd=0.975 as=0.169 ps=1.82 w=0.65 l=0.15
X44 VGND.t47 a_13496_43697# a_13425_43723# VGND.t35 sky130_fd_pr__nfet_01v8 ad=0.12095 pd=1.085 as=0.0989 ps=0.995 w=0.64 l=0.15
X45 a_13247_44089# a_12732_43697# VPWR.t34 freq_divider_0.sky130_fd_sc_hd__tap_2_2.VPB sky130_fd_pr__pfet_01v8_hvt ad=0.0882 pd=0.84 as=0.1113 ps=1.37 w=0.42 l=0.15
X46 a_15221_43697# uo_out[1].t3 VGND.t9 VGND.t8 sky130_fd_pr__nfet_01v8 ad=0.1092 pd=1.36 as=0.0567 ps=0.69 w=0.42 l=0.15
X47 a_16868_43697# a_17153_43697# a_17088_43723# VGND.t65 sky130_fd_pr__nfet_01v8 ad=0.0684 pd=0.74 as=0.066 ps=0.745 w=0.36 l=0.15
X48 a_13645_43723# a_13425_43723# VGND.t34 VGND.t8 sky130_fd_pr__nfet_01v8 ad=0.0696 pd=0.765 as=0.12095 ps=1.085 w=0.42 l=0.15
X49 VPWR.t29 ring_0/skullfet_inverter_16.A ring_0/skullfet_inverter_17.A VPWR.t28 sky130_fd_pr__pfet_01v8 ad=4.4307 pd=10.9 as=6.2694 ps=26.64 w=4.05 l=0.4
X50 VPWR.t70 ring_0/skullfet_inverter_18.A ring_0/skullfet_inverter_19.A VPWR.t69 sky130_fd_pr__pfet_01v8 ad=4.4307 pd=10.9 as=6.2694 ps=26.64 w=4.05 l=0.4
X51 VGND.t36 a_15428_43697# a_15357_43723# VGND.t35 sky130_fd_pr__nfet_01v8 ad=0.12095 pd=1.085 as=0.0989 ps=0.995 w=0.64 l=0.15
X52 VGND.t39 a_12732_43697# uo_out[3].t0 VGND.t0 sky130_fd_pr__nfet_01v8 ad=0.08775 pd=0.92 as=0.169 ps=1.82 w=0.65 l=0.15
X53 VGND.t17 ring_0/skullfet_inverter_6.A ring_0/skullfet_inverter_7.A VGND.t16 sky130_fd_pr__nfet_01v8 ad=4.2687 pd=10.82 as=6.4314 ps=26.72 w=4.05 l=0.4
X54 VPWR.t17 a_17360_43697# a_17289_43723# freq_divider_0.sky130_fd_sc_hd__tap_2_2.VPB sky130_fd_pr__pfet_01v8_hvt ad=0.178875 pd=1.26 as=0.1095 ps=1.075 w=0.75 l=0.15
X55 a_14664_43697# a_14936_43697# VPWR.t0 freq_divider_0.sky130_fd_sc_hd__tap_2_2.VPB sky130_fd_pr__pfet_01v8_hvt ad=0.27 pd=2.54 as=0.135 ps=1.27 w=1 l=0.15
X56 VGND.t53 a_13289_43697# a_13296_43997# VGND.t8 sky130_fd_pr__nfet_01v8 ad=0.0567 pd=0.69 as=0.1092 ps=1.36 w=0.42 l=0.15
X57 ring_0/skullfet_inverter_1.A ring_0/skullfet_inverter_20.Y VPWR.t11 VPWR.t10 sky130_fd_pr__pfet_01v8 ad=6.2694 pd=26.64 as=4.4307 ps=10.9 w=4.05 l=0.4
X58 VPWR.t13 ring_0/skullfet_inverter_15.A ring_0/skullfet_inverter_16.A VPWR.t12 sky130_fd_pr__pfet_01v8 ad=4.4307 pd=10.9 as=6.2694 ps=26.64 w=4.05 l=0.4
X59 ring_0/skullfet_inverter_20.A ring_0/skullfet_inverter_19.A VPWR.t65 VPWR.t64 sky130_fd_pr__pfet_01v8 ad=6.2694 pd=26.64 as=4.4307 ps=10.9 w=4.05 l=0.4
X60 a_14569_43697# a_14664_43697# VGND.t77 VGND.t8 sky130_fd_pr__nfet_01v8 ad=0.1092 pd=1.36 as=0.097 ps=0.975 w=0.42 l=0.15
X61 a_15604_44089# a_15357_43723# VPWR.t71 freq_divider_0.sky130_fd_sc_hd__tap_2_2.VPB sky130_fd_pr__pfet_01v8_hvt ad=0.07665 pd=0.785 as=0.178875 ps=1.26 w=0.42 l=0.15
X62 a_15357_43723# a_15221_43697# a_14936_43697# freq_divider_0.sky130_fd_sc_hd__tap_2_2.VPB sky130_fd_pr__pfet_01v8_hvt ad=0.1095 pd=1.075 as=0.0567 ps=0.69 w=0.42 l=0.15
X63 a_15428_43697# a_15221_43697# a_15604_44089# freq_divider_0.sky130_fd_sc_hd__tap_2_2.VPB sky130_fd_pr__pfet_01v8_hvt ad=0.06825 pd=0.745 as=0.07665 ps=0.785 w=0.42 l=0.15
X64 a_12732_43697# a_13004_43697# VGND.t31 VGND.t0 sky130_fd_pr__nfet_01v8 ad=0.169 pd=1.82 as=0.08775 ps=0.92 w=0.65 l=0.15
X65 VGND.t3 ring_0/skullfet_inverter_4.A uo_out[0].t0 VGND.t2 sky130_fd_pr__nfet_01v8 ad=4.2687 pd=10.82 as=6.4314 ps=26.72 w=4.05 l=0.4
X66 a_17289_43723# a_17160_43997# a_16868_43697# VGND.t65 sky130_fd_pr__nfet_01v8 ad=0.0989 pd=0.995 as=0.0684 ps=0.74 w=0.36 l=0.15
X67 VPWR.t9 freq_divider_0.sky130_fd_sc_hd__dfxbp_1_1.Q_N a_17707_43723# freq_divider_0.sky130_fd_sc_hd__tap_2_2.VPB sky130_fd_pr__pfet_01v8_hvt ad=0.1092 pd=1.36 as=0.05775 ps=0.695 w=0.42 l=0.15
X68 VPWR.t33 a_12732_43697# uo_out[3].t1 freq_divider_0.sky130_fd_sc_hd__tap_2_2.VPB sky130_fd_pr__pfet_01v8_hvt ad=0.135 pd=1.27 as=0.26 ps=2.52 w=1 l=0.15
X69 VGND.t30 ring_0/skullfet_inverter_10.A ring_0/skullfet_inverter_11.A VGND.t29 sky130_fd_pr__nfet_01v8 ad=4.2687 pd=10.82 as=6.4314 ps=26.72 w=4.05 l=0.4
X70 ring_0/skullfet_inverter_10.A ring_0/skullfet_inverter_9.A VPWR.t4 VPWR.t3 sky130_fd_pr__pfet_01v8 ad=6.2694 pd=26.64 as=4.4307 ps=10.9 w=4.05 l=0.4
X71 VPWR.t20 ring_0/skullfet_inverter_13.A ring_0/skullfet_inverter_14.A VPWR.t19 sky130_fd_pr__pfet_01v8 ad=4.4307 pd=10.9 as=6.2694 ps=26.64 w=4.05 l=0.4
X72 ring_0/skullfet_inverter_7.A ring_0/skullfet_inverter_6.A VPWR.t15 VPWR.t14 sky130_fd_pr__pfet_01v8 ad=6.2694 pd=26.64 as=4.4307 ps=10.9 w=4.05 l=0.4
X73 a_17153_43697# uo_out[0].t4 VPWR.t5 freq_divider_0.sky130_fd_sc_hd__tap_2_2.VPB sky130_fd_pr__pfet_01v8_hvt ad=0.1664 pd=1.8 as=0.0864 ps=0.91 w=0.64 l=0.15
X74 a_17536_44089# a_17289_43723# VPWR.t54 freq_divider_0.sky130_fd_sc_hd__tap_2_2.VPB sky130_fd_pr__pfet_01v8_hvt ad=0.07665 pd=0.785 as=0.178875 ps=1.26 w=0.42 l=0.15
X75 a_15775_43723# a_15221_43697# a_15428_43697# VGND.t43 sky130_fd_pr__nfet_01v8 ad=0.0813 pd=0.83 as=0.0621 ps=0.705 w=0.36 l=0.15
X76 a_17360_43697# a_17153_43697# a_17536_44089# freq_divider_0.sky130_fd_sc_hd__tap_2_2.VPB sky130_fd_pr__pfet_01v8_hvt ad=0.06825 pd=0.745 as=0.07665 ps=0.785 w=0.42 l=0.15
X77 a_17111_44089# a_16596_43697# VPWR.t50 freq_divider_0.sky130_fd_sc_hd__tap_2_2.VPB sky130_fd_pr__pfet_01v8_hvt ad=0.0882 pd=0.84 as=0.1113 ps=1.37 w=0.42 l=0.15
X78 a_13004_43697# a_13296_43997# a_13247_44089# freq_divider_0.sky130_fd_sc_hd__tap_2_2.VPB sky130_fd_pr__pfet_01v8_hvt ad=0.0567 pd=0.69 as=0.0882 ps=0.84 w=0.42 l=0.15
X79 VPWR.t43 a_16501_43697# freq_divider_0.sky130_fd_sc_hd__dfxbp_1_1.Q_N freq_divider_0.sky130_fd_sc_hd__tap_2_2.VPB sky130_fd_pr__pfet_01v8_hvt ad=0.154 pd=1.335 as=0.26 ps=2.52 w=1 l=0.15
X80 a_12732_43697# a_13004_43697# VPWR.t27 freq_divider_0.sky130_fd_sc_hd__tap_2_2.VPB sky130_fd_pr__pfet_01v8_hvt ad=0.27 pd=2.54 as=0.135 ps=1.27 w=1 l=0.15
X81 VGND.t49 ring_0/skullfet_inverter_3.A ring_0/skullfet_inverter_4.A VGND.t48 sky130_fd_pr__nfet_01v8 ad=4.2687 pd=10.82 as=6.4314 ps=26.72 w=4.05 l=0.4
X82 VGND.t62 freq_divider_0.sky130_fd_sc_hd__dfxbp_1_2.Q_N a_15775_43723# VGND.t8 sky130_fd_pr__nfet_01v8 ad=0.1092 pd=1.36 as=0.0813 ps=0.83 w=0.42 l=0.15
X83 a_13496_43697# a_13296_43997# a_13645_43723# VGND.t43 sky130_fd_pr__nfet_01v8 ad=0.0621 pd=0.705 as=0.0696 ps=0.765 w=0.36 l=0.15
X84 uo_out[0].t1 ring_0/skullfet_inverter_4.A VPWR.t2 VPWR.t1 sky130_fd_pr__pfet_01v8 ad=6.2694 pd=26.64 as=4.4307 ps=10.9 w=4.05 l=0.4
X85 ring_0/skullfet_inverter_11.A ring_0/skullfet_inverter_10.A VPWR.t26 VPWR.t25 sky130_fd_pr__pfet_01v8 ad=6.2694 pd=26.64 as=4.4307 ps=10.9 w=4.05 l=0.4
X86 a_16501_43697# a_16596_43697# VPWR.t49 freq_divider_0.sky130_fd_sc_hd__tap_2_2.VPB sky130_fd_pr__pfet_01v8_hvt ad=0.1664 pd=1.8 as=0.154 ps=1.335 w=0.64 l=0.15
X87 a_14936_43697# a_15221_43697# a_15156_43723# VGND.t43 sky130_fd_pr__nfet_01v8 ad=0.0684 pd=0.74 as=0.066 ps=0.745 w=0.36 l=0.15
X88 VPWR.t55 a_17153_43697# a_17160_43997# freq_divider_0.sky130_fd_sc_hd__tap_2_2.VPB sky130_fd_pr__pfet_01v8_hvt ad=0.0864 pd=0.91 as=0.1664 ps=1.8 w=0.64 l=0.15
X89 VPWR.t31 a_15428_43697# a_15357_43723# freq_divider_0.sky130_fd_sc_hd__tap_2_2.VPB sky130_fd_pr__pfet_01v8_hvt ad=0.178875 pd=1.26 as=0.1095 ps=1.075 w=0.75 l=0.15
X90 VGND.t5 ring_0/skullfet_inverter_9.A ring_0/skullfet_inverter_10.A VGND.t4 sky130_fd_pr__nfet_01v8 ad=4.2687 pd=10.82 as=6.4314 ps=26.72 w=4.05 l=0.4
X91 ring_0/skullfet_inverter_4.A ring_0/skullfet_inverter_3.A VPWR.t42 VPWR.t41 sky130_fd_pr__pfet_01v8 ad=6.2694 pd=26.64 as=4.4307 ps=10.9 w=4.05 l=0.4
X92 ring_0/skullfet_inverter_14.A ring_0/skullfet_inverter_13.A VGND.t24 VGND.t23 sky130_fd_pr__nfet_01v8 ad=6.4314 pd=26.72 as=4.2687 ps=10.82 w=4.05 l=0.4
X93 a_13425_43723# a_13296_43997# a_13004_43697# VGND.t43 sky130_fd_pr__nfet_01v8 ad=0.0989 pd=0.995 as=0.0684 ps=0.74 w=0.36 l=0.15
X94 ring_0/skullfet_inverter_20.Y ring_0/skullfet_inverter_20.A VPWR.t63 VPWR.t62 sky130_fd_pr__pfet_01v8 ad=6.2694 pd=26.64 as=4.4307 ps=10.9 w=4.05 l=0.4
X95 a_12637_43697# a_12732_43697# VGND.t38 VGND.t37 sky130_fd_pr__nfet_01v8 ad=0.1092 pd=1.36 as=0.097 ps=0.975 w=0.42 l=0.15
X96 a_13672_44089# a_13425_43723# VPWR.t30 freq_divider_0.sky130_fd_sc_hd__tap_2_2.VPB sky130_fd_pr__pfet_01v8_hvt ad=0.07665 pd=0.785 as=0.178875 ps=1.26 w=0.42 l=0.15
X97 ring_0/skullfet_inverter_18.A ring_0/skullfet_inverter_17.A VGND.t72 VGND.t71 sky130_fd_pr__nfet_01v8 ad=6.4314 pd=26.72 as=4.2687 ps=10.82 w=4.05 l=0.4
X98 a_13425_43723# a_13289_43697# a_13004_43697# freq_divider_0.sky130_fd_sc_hd__tap_2_2.VPB sky130_fd_pr__pfet_01v8_hvt ad=0.1095 pd=1.075 as=0.0567 ps=0.69 w=0.42 l=0.15
X99 a_13496_43697# a_13289_43697# a_13672_44089# freq_divider_0.sky130_fd_sc_hd__tap_2_2.VPB sky130_fd_pr__pfet_01v8_hvt ad=0.06825 pd=0.745 as=0.07665 ps=0.785 w=0.42 l=0.15
X100 VPWR.t39 a_14569_43697# freq_divider_0.sky130_fd_sc_hd__dfxbp_1_2.Q_N freq_divider_0.sky130_fd_sc_hd__tap_2_2.VPB sky130_fd_pr__pfet_01v8_hvt ad=0.154 pd=1.335 as=0.26 ps=2.52 w=1 l=0.15
X101 a_15357_43723# a_15228_43997# a_14936_43697# VGND.t43 sky130_fd_pr__nfet_01v8 ad=0.0989 pd=0.995 as=0.0684 ps=0.74 w=0.36 l=0.15
X102 VPWR.t53 freq_divider_0.sky130_fd_sc_hd__dfxbp_1_2.Q_N a_15775_43723# freq_divider_0.sky130_fd_sc_hd__tap_2_2.VPB sky130_fd_pr__pfet_01v8_hvt ad=0.1092 pd=1.36 as=0.05775 ps=0.695 w=0.42 l=0.15
X103 VPWR.t24 ring_0/skullfet_inverter_14.A ring_0/skullfet_inverter_15.A VPWR.t23 sky130_fd_pr__pfet_01v8 ad=4.4307 pd=10.9 as=6.2694 ps=26.64 w=4.05 l=0.4
X104 a_17153_43697# uo_out[0].t5 VGND.t21 VGND.t10 sky130_fd_pr__nfet_01v8 ad=0.1092 pd=1.36 as=0.0567 ps=0.69 w=0.42 l=0.15
X105 a_13843_43723# a_13289_43697# a_13496_43697# VGND.t43 sky130_fd_pr__nfet_01v8 ad=0.0813 pd=0.83 as=0.0621 ps=0.705 w=0.36 l=0.15
X106 a_17509_43723# a_17289_43723# VGND.t63 VGND.t55 sky130_fd_pr__nfet_01v8 ad=0.0696 pd=0.765 as=0.12095 ps=1.085 w=0.42 l=0.15
X107 VGND.t58 a_16596_43697# uo_out[1].t0 VGND.t57 sky130_fd_pr__nfet_01v8 ad=0.08775 pd=0.92 as=0.169 ps=1.82 w=0.65 l=0.15
X108 a_13004_43697# a_13289_43697# a_13224_43723# VGND.t43 sky130_fd_pr__nfet_01v8 ad=0.0684 pd=0.74 as=0.066 ps=0.745 w=0.36 l=0.15
X109 VGND.t20 a_17360_43697# a_17289_43723# VGND.t19 sky130_fd_pr__nfet_01v8 ad=0.12095 pd=1.085 as=0.0989 ps=0.995 w=0.64 l=0.15
X110 VGND.t50 a_16501_43697# freq_divider_0.sky130_fd_sc_hd__dfxbp_1_1.Q_N VGND.t0 sky130_fd_pr__nfet_01v8 ad=0.097 pd=0.975 as=0.169 ps=1.82 w=0.65 l=0.15
X111 VPWR.t52 a_15221_43697# a_15228_43997# freq_divider_0.sky130_fd_sc_hd__tap_2_2.VPB sky130_fd_pr__pfet_01v8_hvt ad=0.0864 pd=0.91 as=0.1664 ps=1.8 w=0.64 l=0.15
X112 VGND.t22 freq_divider_0.sky130_fd_sc_hd__dfxbp_1_3.Q_N a_13843_43723# VGND.t8 sky130_fd_pr__nfet_01v8 ad=0.1092 pd=1.36 as=0.0813 ps=0.83 w=0.42 l=0.15
X113 a_15775_43723# a_15228_43997# a_15428_43697# freq_divider_0.sky130_fd_sc_hd__tap_2_2.VPB sky130_fd_pr__pfet_01v8_hvt ad=0.05775 pd=0.695 as=0.06825 ps=0.745 w=0.42 l=0.15
X114 ring_0/skullfet_inverter_19.A ring_0/skullfet_inverter_18.A VGND.t81 VGND.t80 sky130_fd_pr__nfet_01v8 ad=6.4314 pd=26.72 as=4.2687 ps=10.82 w=4.05 l=0.4
X115 a_16596_43697# a_16868_43697# VPWR.t51 freq_divider_0.sky130_fd_sc_hd__tap_2_2.VPB sky130_fd_pr__pfet_01v8_hvt ad=0.27 pd=2.54 as=0.135 ps=1.27 w=1 l=0.15
X116 a_14569_43697# a_14664_43697# VPWR.t66 freq_divider_0.sky130_fd_sc_hd__tap_2_2.VPB sky130_fd_pr__pfet_01v8_hvt ad=0.1664 pd=1.8 as=0.154 ps=1.335 w=0.64 l=0.15
X117 VGND.t74 ring_0/skullfet_inverter_20.A ring_0/skullfet_inverter_20.Y VGND.t73 sky130_fd_pr__nfet_01v8 ad=4.2687 pd=10.82 as=6.4314 ps=26.72 w=4.05 l=0.4
X118 ring_0/skullfet_inverter_17.A ring_0/skullfet_inverter_16.A VGND.t33 VGND.t32 sky130_fd_pr__nfet_01v8 ad=6.4314 pd=26.72 as=4.2687 ps=10.82 w=4.05 l=0.4
X119 a_17707_43723# a_17160_43997# a_17360_43697# freq_divider_0.sky130_fd_sc_hd__tap_2_2.VPB sky130_fd_pr__pfet_01v8_hvt ad=0.05775 pd=0.695 as=0.06825 ps=0.745 w=0.42 l=0.15
X120 VPWR.t48 a_16596_43697# uo_out[1].t1 freq_divider_0.sky130_fd_sc_hd__tap_2_2.VPB sky130_fd_pr__pfet_01v8_hvt ad=0.135 pd=1.27 as=0.26 ps=2.52 w=1 l=0.15
X121 VGND.t45 ring_0/skullfet_inverter_8.A ring_0/skullfet_inverter_9.A VGND.t44 sky130_fd_pr__nfet_01v8 ad=4.2687 pd=10.82 as=6.4314 ps=26.72 w=4.05 l=0.4
X122 VPWR.t40 a_13496_43697# a_13425_43723# freq_divider_0.sky130_fd_sc_hd__tap_2_2.VPB sky130_fd_pr__pfet_01v8_hvt ad=0.178875 pd=1.26 as=0.1095 ps=1.075 w=0.75 l=0.15
X123 ring_0/skullfet_inverter_3.A ring_0/skullfet_inverter_2.A VPWR.t45 VPWR.t44 sky130_fd_pr__pfet_01v8 ad=6.2694 pd=26.64 as=4.4307 ps=10.9 w=4.05 l=0.4
X124 VGND.t64 a_17153_43697# a_17160_43997# VGND.t10 sky130_fd_pr__nfet_01v8 ad=0.0567 pd=0.69 as=0.1092 ps=1.36 w=0.42 l=0.15
X125 a_17088_43723# a_16596_43697# VGND.t56 VGND.t55 sky130_fd_pr__nfet_01v8 ad=0.066 pd=0.745 as=0.1092 ps=1.36 w=0.42 l=0.15
R0 uo_out[2].n2 uo_out[2].t1 313.104
R1 uo_out[2].n0 uo_out[2].t2 294.557
R2 uo_out[2].t0 uo_out[2].n2 265.769
R3 uo_out[2] uo_out[2].t0 262.318
R4 uo_out[2].n0 uo_out[2].t3 211.01
R5 uo_out[2].n1 uo_out[2].n0 152
R6 uo_out[2].n5 uo_out[2] 12.1482
R7 uo_out[2].n4 uo_out[2].n1 11.6311
R8 uo_out[2].n4 uo_out[2].n3 9.3005
R9 uo_out[2].n3 uo_out[2] 7.17626
R10 uo_out[2].n3 uo_out[2].n2 4.84898
R11 uo_out[2].n5 uo_out[2].n4 4.51042
R12 uo_out[2].n1 uo_out[2] 1.37896
R13 uo_out[2] uo_out[2].n5 0.0730806
R14 VPWR.n112 VPWR.t63 739.681
R15 VPWR.n114 VPWR.t70 739.681
R16 VPWR.n116 VPWR.t65 739.681
R17 VPWR.n150 VPWR.t22 739.681
R18 VPWR.n148 VPWR.t20 739.681
R19 VPWR.n84 VPWR.t26 739.681
R20 VPWR.n5 VPWR.t59 739.681
R21 VPWR.n85 VPWR.t24 739.681
R22 VPWR.n109 VPWR.t13 739.681
R23 VPWR.n122 VPWR.t29 739.681
R24 VPWR.n119 VPWR.t61 739.681
R25 VPWR.n153 VPWR.t57 739.681
R26 VPWR.n82 VPWR.t4 739.681
R27 VPWR.n80 VPWR.t38 739.681
R28 VPWR.n53 VPWR.t7 739.681
R29 VPWR.n30 VPWR.t2 739.681
R30 VPWR.n9 VPWR.t42 739.681
R31 VPWR.n6 VPWR.t45 739.681
R32 VPWR.n3 VPWR.t11 739.681
R33 VPWR.n56 VPWR.t15 739.681
R34 VPWR.n159 VPWR.t36 739.681
R35 VPWR.n112 VPWR.t62 707.852
R36 VPWR.n114 VPWR.t69 707.852
R37 VPWR.n116 VPWR.t64 707.852
R38 VPWR.n150 VPWR.t21 707.852
R39 VPWR.n148 VPWR.t19 707.852
R40 VPWR.n153 VPWR.t56 707.852
R41 VPWR.n84 VPWR.t25 707.852
R42 VPWR.n82 VPWR.t3 707.852
R43 VPWR.n80 VPWR.t37 707.852
R44 VPWR.n53 VPWR.t6 707.852
R45 VPWR.n30 VPWR.t1 707.852
R46 VPWR.n9 VPWR.t41 707.852
R47 VPWR.n6 VPWR.t44 707.852
R48 VPWR.n5 VPWR.t58 707.852
R49 VPWR.n3 VPWR.t10 707.852
R50 VPWR.n56 VPWR.t14 707.852
R51 VPWR.n159 VPWR.t35 707.852
R52 VPWR.n85 VPWR.t23 707.852
R53 VPWR.n109 VPWR.t12 707.852
R54 VPWR.n122 VPWR.t28 707.852
R55 VPWR.n119 VPWR.t60 707.852
R56 VPWR.n285 VPWR.t34 667.734
R57 VPWR.n320 VPWR.t68 667.734
R58 VPWR.n354 VPWR.t50 667.734
R59 VPWR.n299 VPWR.t18 666.677
R60 VPWR.n334 VPWR.t53 666.677
R61 VPWR.n238 VPWR.t9 666.677
R62 VPWR.n304 VPWR.n303 604.394
R63 VPWR.n251 VPWR.n250 604.394
R64 VPWR.n372 VPWR.n371 604.394
R65 VPWR.n273 VPWR.n272 333.348
R66 VPWR.n261 VPWR.n260 333.348
R67 VPWR.n352 VPWR.n246 333.348
R68 VPWR.n292 VPWR.n269 320.976
R69 VPWR.n327 VPWR.n255 320.976
R70 VPWR.n243 VPWR.n242 320.976
R71 VPWR.n276 VPWR.n275 240.522
R72 VPWR.n263 VPWR.n262 240.522
R73 VPWR.n346 VPWR.n345 240.522
R74 VPWR.n269 VPWR.t30 113.98
R75 VPWR.n255 VPWR.t71 113.98
R76 VPWR.n242 VPWR.t54 113.98
R77 VPWR.n275 VPWR.t32 61.9872
R78 VPWR.n262 VPWR.t66 61.9872
R79 VPWR.n345 VPWR.t49 61.9872
R80 VPWR.n303 VPWR.t47 41.5552
R81 VPWR.n303 VPWR.t46 41.5552
R82 VPWR.n250 VPWR.t8 41.5552
R83 VPWR.n250 VPWR.t52 41.5552
R84 VPWR.n371 VPWR.t5 41.5552
R85 VPWR.n371 VPWR.t55 41.5552
R86 VPWR.n269 VPWR.t40 35.4605
R87 VPWR.n255 VPWR.t31 35.4605
R88 VPWR.n242 VPWR.t17 35.4605
R89 VPWR.n281 VPWR.n280 34.6358
R90 VPWR.n280 VPWR.n279 34.6358
R91 VPWR.n298 VPWR.n297 34.6358
R92 VPWR.n297 VPWR.n267 34.6358
R93 VPWR.n293 VPWR.n267 34.6358
R94 VPWR.n291 VPWR.n290 34.6358
R95 VPWR.n290 VPWR.n270 34.6358
R96 VPWR.n286 VPWR.n270 34.6358
R97 VPWR.n310 VPWR.n309 34.6358
R98 VPWR.n309 VPWR.n264 34.6358
R99 VPWR.n305 VPWR.n264 34.6358
R100 VPWR.n316 VPWR.n315 34.6358
R101 VPWR.n315 VPWR.n314 34.6358
R102 VPWR.n333 VPWR.n253 34.6358
R103 VPWR.n329 VPWR.n253 34.6358
R104 VPWR.n329 VPWR.n328 34.6358
R105 VPWR.n326 VPWR.n256 34.6358
R106 VPWR.n322 VPWR.n256 34.6358
R107 VPWR.n322 VPWR.n321 34.6358
R108 VPWR.n344 VPWR.n249 34.6358
R109 VPWR.n340 VPWR.n249 34.6358
R110 VPWR.n340 VPWR.n339 34.6358
R111 VPWR.n351 VPWR.n247 34.6358
R112 VPWR.n347 VPWR.n247 34.6358
R113 VPWR.n366 VPWR.n365 34.6358
R114 VPWR.n365 VPWR.n364 34.6358
R115 VPWR.n364 VPWR.n240 34.6358
R116 VPWR.n360 VPWR.n359 34.6358
R117 VPWR.n359 VPWR.n358 34.6358
R118 VPWR.n358 VPWR.n244 34.6358
R119 VPWR.n284 VPWR.n273 32.0005
R120 VPWR.n261 VPWR.n258 32.0005
R121 VPWR.n353 VPWR.n352 32.0005
R122 VPWR.n373 VPWR.n372 30.7593
R123 VPWR.n285 VPWR.n284 30.4946
R124 VPWR.n320 VPWR.n258 30.4946
R125 VPWR.n354 VPWR.n353 30.4946
R126 VPWR.n275 VPWR.t16 30.1692
R127 VPWR.n262 VPWR.t39 30.1692
R128 VPWR.n345 VPWR.t43 30.1692
R129 VPWR.n299 VPWR.n298 27.4829
R130 VPWR.n310 VPWR.n263 27.4829
R131 VPWR.n334 VPWR.n333 27.4829
R132 VPWR.n346 VPWR.n344 27.4829
R133 VPWR.n366 VPWR.n238 27.4829
R134 VPWR.n272 VPWR.t27 26.5955
R135 VPWR.n272 VPWR.t33 26.5955
R136 VPWR.n260 VPWR.t0 26.5955
R137 VPWR.n260 VPWR.t67 26.5955
R138 VPWR.n246 VPWR.t51 26.5955
R139 VPWR.n246 VPWR.t48 26.5955
R140 VPWR.n279 VPWR.n276 25.6005
R141 VPWR.n314 VPWR.n263 25.6005
R142 VPWR.n347 VPWR.n346 25.6005
R143 VPWR.n304 VPWR.n265 22.9652
R144 VPWR.n335 VPWR.n251 22.9652
R145 VPWR.n372 VPWR.n370 22.9652
R146 VPWR.n299 VPWR.n265 21.8358
R147 VPWR.n335 VPWR.n334 21.8358
R148 VPWR.n370 VPWR.n238 21.8358
R149 VPWR.n373 VPWR.n237 21.795
R150 VPWR.n305 VPWR.n304 21.4593
R151 VPWR.n339 VPWR.n251 21.4593
R152 VPWR.n293 VPWR.n292 18.4476
R153 VPWR.n328 VPWR.n327 18.4476
R154 VPWR.n243 VPWR.n240 18.4476
R155 VPWR.n292 VPWR.n291 16.1887
R156 VPWR.n327 VPWR.n326 16.1887
R157 VPWR.n360 VPWR.n243 16.1887
R158 VPWR.n286 VPWR.n285 15.0593
R159 VPWR.n321 VPWR.n320 15.0593
R160 VPWR.n354 VPWR.n244 15.0593
R161 VPWR.n154 VPWR.n153 13.377
R162 VPWR.n83 VPWR.n82 13.377
R163 VPWR.n81 VPWR.n80 13.377
R164 VPWR.n54 VPWR.n53 13.377
R165 VPWR.n31 VPWR.n30 13.377
R166 VPWR.n10 VPWR.n9 13.377
R167 VPWR.n7 VPWR.n6 13.377
R168 VPWR.n4 VPWR.n3 13.377
R169 VPWR.n57 VPWR.n56 13.377
R170 VPWR.n160 VPWR.n159 13.377
R171 VPWR VPWR.n112 13.3202
R172 VPWR.n115 VPWR.n114 13.3202
R173 VPWR VPWR.n116 13.3202
R174 VPWR VPWR.n150 13.3202
R175 VPWR.n149 VPWR.n148 13.3202
R176 VPWR VPWR.n84 13.3202
R177 VPWR VPWR.n5 13.3202
R178 VPWR.n86 VPWR.n85 13.3202
R179 VPWR.n110 VPWR.n109 13.3202
R180 VPWR.n123 VPWR.n122 13.3202
R181 VPWR.n120 VPWR.n119 13.3202
R182 VPWR.n113 VPWR 9.7375
R183 VPWR.n117 VPWR 9.39357
R184 VPWR.n372 VPWR.n0 9.3005
R185 VPWR.n370 VPWR.n369 9.3005
R186 VPWR.n368 VPWR.n238 9.3005
R187 VPWR.n367 VPWR.n366 9.3005
R188 VPWR.n365 VPWR.n239 9.3005
R189 VPWR.n364 VPWR.n363 9.3005
R190 VPWR.n362 VPWR.n240 9.3005
R191 VPWR.n361 VPWR.n360 9.3005
R192 VPWR.n359 VPWR.n241 9.3005
R193 VPWR.n358 VPWR.n357 9.3005
R194 VPWR.n356 VPWR.n244 9.3005
R195 VPWR.n355 VPWR.n354 9.3005
R196 VPWR.n353 VPWR.n245 9.3005
R197 VPWR.n351 VPWR.n350 9.3005
R198 VPWR.n349 VPWR.n247 9.3005
R199 VPWR.n348 VPWR.n347 9.3005
R200 VPWR.n346 VPWR.n248 9.3005
R201 VPWR.n344 VPWR.n343 9.3005
R202 VPWR.n342 VPWR.n249 9.3005
R203 VPWR.n341 VPWR.n340 9.3005
R204 VPWR.n339 VPWR.n338 9.3005
R205 VPWR.n337 VPWR.n251 9.3005
R206 VPWR.n336 VPWR.n335 9.3005
R207 VPWR.n334 VPWR.n252 9.3005
R208 VPWR.n333 VPWR.n332 9.3005
R209 VPWR.n331 VPWR.n253 9.3005
R210 VPWR.n330 VPWR.n329 9.3005
R211 VPWR.n328 VPWR.n254 9.3005
R212 VPWR.n326 VPWR.n325 9.3005
R213 VPWR.n324 VPWR.n256 9.3005
R214 VPWR.n323 VPWR.n322 9.3005
R215 VPWR.n321 VPWR.n257 9.3005
R216 VPWR.n320 VPWR.n319 9.3005
R217 VPWR.n318 VPWR.n258 9.3005
R218 VPWR.n317 VPWR.n316 9.3005
R219 VPWR.n315 VPWR.n259 9.3005
R220 VPWR.n314 VPWR.n313 9.3005
R221 VPWR.n312 VPWR.n263 9.3005
R222 VPWR.n311 VPWR.n310 9.3005
R223 VPWR.n309 VPWR.n308 9.3005
R224 VPWR.n307 VPWR.n264 9.3005
R225 VPWR.n306 VPWR.n305 9.3005
R226 VPWR.n304 VPWR.n302 9.3005
R227 VPWR.n301 VPWR.n265 9.3005
R228 VPWR.n300 VPWR.n299 9.3005
R229 VPWR.n298 VPWR.n266 9.3005
R230 VPWR.n297 VPWR.n296 9.3005
R231 VPWR.n295 VPWR.n267 9.3005
R232 VPWR.n294 VPWR.n293 9.3005
R233 VPWR.n291 VPWR.n268 9.3005
R234 VPWR.n290 VPWR.n289 9.3005
R235 VPWR.n288 VPWR.n270 9.3005
R236 VPWR.n287 VPWR.n286 9.3005
R237 VPWR.n285 VPWR.n271 9.3005
R238 VPWR.n284 VPWR.n283 9.3005
R239 VPWR.n282 VPWR.n281 9.3005
R240 VPWR.n280 VPWR.n274 9.3005
R241 VPWR.n279 VPWR.n278 9.3005
R242 VPWR.n155 VPWR.n154 8.51977
R243 VPWR.n232 VPWR 8.13646
R244 VPWR.n121 VPWR.n118 7.53241
R245 VPWR.n157 VPWR.n83 7.53109
R246 VPWR.n158 VPWR.n81 7.45619
R247 VPWR.n277 VPWR.n276 7.4049
R248 VPWR.n151 VPWR 7.19357
R249 VPWR.n161 VPWR.n160 6.79323
R250 VPWR.n233 VPWR.n4 6.76538
R251 VPWR.n156 VPWR 6.40107
R252 VPWR.n121 VPWR.n120 6.34337
R253 VPWR.n124 VPWR.n123 6.19552
R254 VPWR.n117 VPWR.n115 6.1805
R255 VPWR.n231 VPWR.n7 6.08268
R256 VPWR.n118 VPWR.n113 6.07746
R257 VPWR.n58 VPWR.n57 6.01772
R258 VPWR.n229 VPWR.n10 6.01019
R259 VPWR.n32 VPWR.n31 5.71852
R260 VPWR.n55 VPWR.n54 5.65925
R261 VPWR.n111 VPWR.n110 5.44488
R262 VPWR.n87 VPWR.n86 5.3655
R263 VPWR.n151 VPWR.n149 5.233
R264 VPWR.n231 VPWR.n230 4.17361
R265 VPWR.n155 VPWR.n152 4.09662
R266 VPWR.n237 VPWR 3.1965
R267 VPWR.n186 VPWR.n185 3.07281
R268 VPWR.n281 VPWR.n273 2.63579
R269 VPWR.n316 VPWR.n261 2.63579
R270 VPWR.n352 VPWR.n351 2.63579
R271 VPWR.n237 VPWR.n236 1.96192
R272 VPWR.n118 VPWR.n117 1.25038
R273 VPWR.n152 VPWR.n147 1.04638
R274 VPWR.n156 VPWR.n155 0.926193
R275 VPWR.n124 VPWR.n121 0.897709
R276 VPWR.n157 VPWR.n156 0.877511
R277 VPWR.n224 VPWR.n223 0.861295
R278 VPWR.n232 VPWR.n231 0.838747
R279 VPWR.n233 VPWR.n232 0.810795
R280 VPWR.n113 VPWR.n2 0.786394
R281 VPWR.n162 VPWR.n158 0.69817
R282 VPWR.n125 VPWR.n124 0.574375
R283 VPWR.n158 VPWR.n157 0.53698
R284 VPWR.n225 VPWR.n224 0.507602
R285 VPWR.n185 VPWR.n184 0.491158
R286 VPWR.n152 VPWR.n151 0.456575
R287 VPWR.n226 VPWR.n225 0.391496
R288 VPWR.n187 VPWR.n186 0.380996
R289 VPWR.n235 VPWR.n234 0.341219
R290 VPWR.n226 VPWR.n8 0.325974
R291 VPWR.n125 VPWR.n111 0.323617
R292 VPWR.n230 VPWR.n8 0.320751
R293 VPWR.n188 VPWR.n187 0.263105
R294 VPWR.n189 VPWR.n188 0.23221
R295 VPWR.n228 VPWR.n8 0.198913
R296 VPWR.n227 VPWR.n226 0.195812
R297 VPWR.n190 VPWR.n189 0.193814
R298 VPWR.n225 VPWR.n11 0.192808
R299 VPWR.n224 VPWR.n12 0.189894
R300 VPWR.n235 VPWR.n2 0.188146
R301 VPWR.n191 VPWR.n190 0.183989
R302 VPWR.n163 VPWR.n162 0.169675
R303 VPWR.n184 VPWR.n183 0.168706
R304 VPWR.n186 VPWR.n52 0.162658
R305 VPWR.n192 VPWR.n191 0.157627
R306 VPWR.n277 VPWR 0.156264
R307 VPWR.n14 VPWR.n13 0.154418
R308 VPWR.n161 VPWR.n79 0.154418
R309 VPWR.n208 VPWR.n28 0.153485
R310 VPWR.n193 VPWR.n192 0.148565
R311 VPWR.n89 VPWR.n88 0.147626
R312 VPWR.n278 VPWR.n277 0.144904
R313 VPWR.n187 VPWR.n51 0.143882
R314 VPWR.n188 VPWR.n50 0.142412
R315 VPWR.n190 VPWR.n48 0.140206
R316 VPWR.n189 VPWR.n49 0.140035
R317 VPWR.n192 VPWR.n46 0.139637
R318 VPWR.n191 VPWR.n47 0.139471
R319 VPWR.n127 VPWR.n107 0.137548